
  CDK

 11 11  0  0  0  0  0  0  0  0999 V2000
    0.6657   -2.3043    0.0000 C   0  0  0  0  0  0  0  0  0  0  0  0
    0.0000   -3.4588    0.0000 O   0  0  0  0  0  0  0  0  0  0  0  0
    0.0000   -1.1545    0.0000 O   0  0  0  0  0  0  0  0  0  0  0  0
    1.9971   -2.3043    0.0000 C   0  0  0  0  0  0  0  0  0  0  0  0
    2.6581   -1.1545    0.0000 C   0  0  0  0  0  0  0  0  0  0  0  0
    2.6581   -3.4588    0.0000 C   0  0  0  0  0  0  0  0  0  0  0  0
    1.9971   -0.0000    0.0000 Cl  0  0  0  0  0  0  0  0  0  0  0  0
    3.9895   -1.1545    0.0000 C   0  0  0  0  0  0  0  0  0  0  0  0
    3.9895   -3.4588    0.0000 C   0  0  0  0  0  0  0  0  0  0  0  0
    1.9971   -4.6086    0.0000 Cl  0  0  0  0  0  0  0  0  0  0  0  0
    4.6552   -2.3043    0.0000 C   0  0  0  0  0  0  0  0  0  0  0  0
  1  2  2  0  0  0  0 
  1  3  1  0  0  0  0 
  1  4  1  0  0  0  0 
  4  5  2  0  0  0  0 
  4  6  1  0  0  0  0 
  5  7  1  0  0  0  0 
  5  8  1  0  0  0  0 
  9  6  2  0  0  0  0 
  6 10  1  0  0  0  0 
  8 11  2  0  0  0  0 
 11  9  1  0  0  0  0 
M  END
> <Name>
Benzoic acid, 2,6-dichloro-

> <Source>
DSSTox2DMolFile

> <Tox>
2.330

> <CAS>
50-30-6

$$$$

  CDK

 12 12  0  0  0  0  0  0  0  0999 V2000
    0.7074    2.7301    0.0285 Cl  0  0  0  0  0  0  0  0  0  0  0  0
   -0.1116    1.2081    0.0194 C   0  0  0  0  0  0  0  0  0  0  0  0
    0.5856    0.0000    0.0269 C   0  0  0  0  0  0  0  0  0  0  0  0
   -1.5064    1.2084    0.0047 C   0  0  0  0  0  0  0  0  0  0  0  0
   -0.1120   -1.2079    0.0198 C   0  0  0  0  0  0  0  0  0  0  0  0
    2.0477    0.0001    0.0427 C   0  0  0  0  0  0  0  0  0  0  0  0
   -2.2040    0.0004   -0.0025 C   0  0  0  0  0  0  0  0  0  0  0  0
    0.7061   -2.7304    0.0287 Cl  0  0  0  0  0  0  0  0  0  0  0  0
   -1.5068   -1.2077    0.0051 C   0  0  0  0  0  0  0  0  0  0  0  0
    2.5739   -0.0012   -1.2095 O   0  0  0  0  0  0  0  0  0  0  0  0
    2.7449    0.0002    1.0570 O   0  0  0  0  0  0  0  0  0  0  0  0
   -3.9249    0.0000   -0.0208 Cl  0  0  0  0  0  0  0  0  0  0  0  0
  1  2  1  0  0  0  0 
  3  2  2  0  0  0  0 
  2  4  1  0  0  0  0 
  3  5  1  0  0  0  0 
  3  6  1  0  0  0  0 
  4  7  2  0  0  0  0 
  8  5  1  0  0  0  0 
  5  9  2  0  0  0  0 
 10  6  1  0  0  0  0 
 11  6  2  0  0  0  0 
 12  7  1  0  0  0  0 
  9  7  1  0  0  0  0 
M  END
> <Name>
2,4,6-trichlorobenzoic acid

> <Source>
Chemidplus3DMolFile

> <Tox>
2.590

> <CAS>
50-43-1

$$$$

  CDK

 11 11  0  0  0  0  0  0  0  0999 V2000
    4.6557   -1.1500    0.0000 O   0  0  0  0  0  0  0  0  0  0  0  0
    3.9900   -2.3046    0.0000 C   0  0  0  0  0  0  0  0  0  0  0  0
    4.6557   -3.4545    0.0000 O   0  0  0  0  0  0  0  0  0  0  0  0
    2.6584   -2.3046    0.0000 C   0  0  0  0  0  0  0  0  0  0  0  0
    1.9973   -3.4545    0.0000 C   0  0  0  0  0  0  0  0  0  0  0  0
    1.9973   -1.1500    0.0000 C   0  0  0  0  0  0  0  0  0  0  0  0
    0.6658   -3.4545    0.0000 C   0  0  0  0  0  0  0  0  0  0  0  0
    0.6658   -1.1500    0.0000 C   0  0  0  0  0  0  0  0  0  0  0  0
    2.6584   -0.0000    0.0000 Cl  0  0  0  0  0  0  0  0  0  0  0  0
    0.0000   -2.3046    0.0000 C   0  0  0  0  0  0  0  0  0  0  0  0
    0.0000   -0.0000    0.0000 Cl  0  0  0  0  0  0  0  0  0  0  0  0
  1  2  1  0  0  0  0 
  2  3  2  0  0  0  0 
  2  4  1  0  0  0  0 
  4  5  2  0  0  0  0 
  4  6  1  0  0  0  0 
  5  7  1  0  0  0  0 
  8  6  2  0  0  0  0 
  6  9  1  0  0  0  0 
  7 10  2  0  0  0  0 
 10  8  1  0  0  0  0 
  8 11  1  0  0  0  0 
M  END
> <Name>
Benzoic acid, 2,3-dichloro-

> <Source>
DSSTox2DMolFile

> <Tox>
2.590

> <CAS>
50-45-3

$$$$

  CDK

 11 11  0  0  0  0  0  0  0  0999 V2000
    0.6656   -2.3039    0.0000 C   0  0  0  0  0  0  0  0  0  0  0  0
    0.0000   -3.4583    0.0000 O   0  0  0  0  0  0  0  0  0  0  0  0
    0.0000   -1.1543    0.0000 O   0  0  0  0  0  0  0  0  0  0  0  0
    1.9968   -2.3039    0.0000 C   0  0  0  0  0  0  0  0  0  0  0  0
    2.6577   -1.1543    0.0000 C   0  0  0  0  0  0  0  0  0  0  0  0
    2.6577   -3.4583    0.0000 C   0  0  0  0  0  0  0  0  0  0  0  0
    3.9889   -1.1543    0.0000 C   0  0  0  0  0  0  0  0  0  0  0  0
    3.9889   -3.4583    0.0000 C   0  0  0  0  0  0  0  0  0  0  0  0
    1.9968   -4.6079    0.0000 Cl  0  0  0  0  0  0  0  0  0  0  0  0
    4.6544   -0.0000    0.0000 Cl  0  0  0  0  0  0  0  0  0  0  0  0
    4.6544   -2.3039    0.0000 C   0  0  0  0  0  0  0  0  0  0  0  0
  1  2  2  0  0  0  0 
  1  3  1  0  0  0  0 
  1  4  1  0  0  0  0 
  4  5  2  0  0  0  0 
  4  6  1  0  0  0  0 
  5  7  1  0  0  0  0 
  8  6  2  0  0  0  0 
  6  9  1  0  0  0  0 
  7 10  1  0  0  0  0 
  7 11  2  0  0  0  0 
 11  8  1  0  0  0  0 
M  END
> <Name>
Benzoic acid, 2,5-dichloro-

> <Source>
DSSTox2DMolFile

> <Tox>
2.540

> <CAS>
50-79-3

$$$$

  CDK

 13 13  0  0  0  0  0  0  0  0999 V2000
    5.7563   -0.0000    0.0000 O   0  0  0  0  0  0  0  0  0  0  0  0
    4.6092   -0.6634    0.0000 C   0  0  0  0  0  0  0  0  0  0  0  0
    4.6092   -1.9902    0.0000 C   0  0  0  0  0  0  0  0  0  0  0  0
    3.4552   -0.0000    0.0000 C   0  0  0  0  0  0  0  0  0  0  0  0
    3.4552   -2.6605    0.0000 C   0  0  0  0  0  0  0  0  0  0  0  0
    5.7563   -2.6605    0.0000 N   0  0  0  0  0  0  0  0  0  0  0  0
    2.3011   -0.6634    0.0000 C   0  0  0  0  0  0  0  0  0  0  0  0
    2.3011   -1.9902    0.0000 C   0  0  0  0  0  0  0  0  0  0  0  0
    5.7563   -3.9873    0.0000 O   0  0  0  0  0  0  0  0  0  0  0  0
    6.9103   -1.9902    0.0000 O   0  0  0  0  0  0  0  0  0  0  0  0
    1.1540   -2.6605    0.0000 N   0  0  0  0  0  0  0  0  0  0  0  0
    1.1540   -3.9873    0.0000 O   0  0  0  0  0  0  0  0  0  0  0  0
    0.0000   -1.9902    0.0000 O   0  0  0  0  0  0  0  0  0  0  0  0
  1  2  1  0  0  0  0 
  2  3  2  0  0  0  0 
  2  4  1  0  0  0  0 
  3  5  1  0  0  0  0 
  3  6  1  0  0  0  0 
  7  4  2  0  0  0  0 
  5  8  2  0  0  0  0 
  6  9  2  0  0  0  0 
  6 10  1  0  0  0  0 
  8  7  1  0  0  0  0 
  8 11  1  0  0  0  0 
 11 12  2  0  0  0  0 
 11 13  1  0  0  0  0 
M  CHG  1   6   1
M  CHG  1  10  -1
M  CHG  1  11   1
M  CHG  1  13  -1
M  END
> <Name>
Phenol, 2,4-dinitro-

> <Source>
DSSTox2DMolFile

> <Tox>
4.060

> <CAS>
51-28-5

$$$$

  CDK

 11 11  0  0  0  0  0  0  0  0999 V2000
    0.0000   -3.4577    0.0000 O   0  0  0  0  0  0  0  0  0  0  0  0
    0.6655   -2.3036    0.0000 C   0  0  0  0  0  0  0  0  0  0  0  0
    0.0000   -1.1541    0.0000 O   0  0  0  0  0  0  0  0  0  0  0  0
    1.9964   -2.3036    0.0000 C   0  0  0  0  0  0  0  0  0  0  0  0
    2.6573   -1.1541    0.0000 C   0  0  0  0  0  0  0  0  0  0  0  0
    2.6573   -3.4577    0.0000 C   0  0  0  0  0  0  0  0  0  0  0  0
    3.9882   -1.1541    0.0000 C   0  0  0  0  0  0  0  0  0  0  0  0
    3.9882   -3.4577    0.0000 C   0  0  0  0  0  0  0  0  0  0  0  0
    4.6537   -0.0000    0.0000 Cl  0  0  0  0  0  0  0  0  0  0  0  0
    4.6537   -2.3036    0.0000 C   0  0  0  0  0  0  0  0  0  0  0  0
    4.6537   -4.6072    0.0000 Cl  0  0  0  0  0  0  0  0  0  0  0  0
  1  2  1  0  0  0  0 
  2  3  2  0  0  0  0 
  2  4  1  0  0  0  0 
  4  5  2  0  0  0  0 
  4  6  1  0  0  0  0 
  5  7  1  0  0  0  0 
  8  6  2  0  0  0  0 
  7  9  1  0  0  0  0 
  7 10  2  0  0  0  0 
 10  8  1  0  0  0  0 
  8 11  1  0  0  0  0 
M  END
> <Name>
Benzoic acid, 3,5-dichloro-

> <Source>
DSSTox2DMolFile

> <Tox>
3.270

> <CAS>
51-36-5

$$$$

  CDK

 11 11  0  0  0  0  0  0  0  0999 V2000
    5.3194   -2.3037    0.0000 C   0  0  0  0  0  0  0  0  0  0  0  0
    5.9835   -1.1488    0.0000 O   0  0  0  0  0  0  0  0  0  0  0  0
    5.9835   -3.4525    0.0000 O   0  0  0  0  0  0  0  0  0  0  0  0
    3.9910   -2.3037    0.0000 C   0  0  0  0  0  0  0  0  0  0  0  0
    3.3269   -3.4525    0.0000 C   0  0  0  0  0  0  0  0  0  0  0  0
    3.3269   -1.1488    0.0000 C   0  0  0  0  0  0  0  0  0  0  0  0
    1.9925   -3.4525    0.0000 C   0  0  0  0  0  0  0  0  0  0  0  0
    1.9925   -1.1488    0.0000 C   0  0  0  0  0  0  0  0  0  0  0  0
    1.3283   -2.3037    0.0000 C   0  0  0  0  0  0  0  0  0  0  0  0
    1.3283   -0.0000    0.0000 Cl  0  0  0  0  0  0  0  0  0  0  0  0
    0.0000   -2.3037    0.0000 Cl  0  0  0  0  0  0  0  0  0  0  0  0
  1  2  2  0  0  0  0 
  1  3  1  0  0  0  0 
  1  4  1  0  0  0  0 
  4  5  2  0  0  0  0 
  4  6  1  0  0  0  0 
  5  7  1  0  0  0  0 
  8  6  2  0  0  0  0 
  7  9  2  0  0  0  0 
  9  8  1  0  0  0  0 
  8 10  1  0  0  0  0 
  9 11  1  0  0  0  0 
M  END
> <Name>
Benzoic acid, 3,4-dichloro-

> <Source>
DSSTox2DMolFile

> <Tox>
3.310

> <CAS>
51-44-5

$$$$

  CDK

  9  9  0  0  0  0  0  0  0  0999 V2000
    2.6574   -0.0000    0.0000 C   0  0  0  0  0  0  0  0  0  0  0  0
    3.9884   -0.0000    0.0000 C   0  0  0  0  0  0  0  0  0  0  0  0
    1.9965   -1.1542    0.0000 C   0  0  0  0  0  0  0  0  0  0  0  0
    4.6539   -1.1542    0.0000 C   0  0  0  0  0  0  0  0  0  0  0  0
    2.6574   -2.3037    0.0000 C   0  0  0  0  0  0  0  0  0  0  0  0
    0.6655   -1.1542    0.0000 C   0  0  0  0  0  0  0  0  0  0  0  0
    3.9884   -2.3037    0.0000 C   0  0  0  0  0  0  0  0  0  0  0  0
    0.0000   -2.3037    0.0000 O   0  0  0  0  0  0  0  0  0  0  0  0
    0.0000   -0.0000    0.0000 N   0  0  0  0  0  0  0  0  0  0  0  0
  1  2  2  0  0  0  0 
  1  3  1  0  0  0  0 
  2  4  1  0  0  0  0 
  5  3  2  0  0  0  0 
  3  6  1  0  0  0  0 
  4  7  2  0  0  0  0 
  7  5  1  0  0  0  0 
  6  8  2  0  0  0  0 
  6  9  1  0  0  0  0 
M  END
> <Name>
Benzamide

> <Source>
DSSTox2DMolFile

> <Tox>
2.090

> <CAS>
55-21-0

$$$$

  CDK

  5  4  0  0  0  0  0  0  0  0999 V2000
    1.3300   -2.6600    0.0000 Cl  0  0  0  0  0  0  0  0  0  0  0  0
    1.3300   -1.3300    0.0000 C   0  0  0  0  0  0  0  0  0  0  0  0
    0.0000   -1.3300    0.0000 Cl  0  0  0  0  0  0  0  0  0  0  0  0
    1.3300   -0.0000    0.0000 Cl  0  0  0  0  0  0  0  0  0  0  0  0
    2.6600   -1.3300    0.0000 Cl  0  0  0  0  0  0  0  0  0  0  0  0
  1  2  1  0  0  0  0 
  2  3  1  0  0  0  0 
  2  4  1  0  0  0  0 
  2  5  1  0  0  0  0 
M  END
> <Name>
Methane, tetrachloro-

> <Source>
DSSTox2DMolFile

> <Tox>
2.980

> <CAS>
56-23-5

$$$$

  CDK

  6  5  0  0  0  0  0  0  0  0999 V2000
    0.0000   -0.6684    0.0000 C   0  0  0  0  0  0  0  0  0  0  0  0
    1.1525   -1.3311    0.0000 C   0  0  0  0  0  0  0  0  0  0  0  0
    2.3050   -0.6684    0.0000 C   0  0  0  0  0  0  0  0  0  0  0  0
    3.4575   -1.3311    0.0000 N   0  0  0  0  0  0  0  0  0  0  0  0
    4.6099   -0.6684    0.0000 C   0  0  0  0  0  0  0  0  0  0  0  0
    5.7624   -0.0000    0.0000 S   0  0  0  0  0  0  0  0  0  0  0  0
  1  2  2  0  0  0  0 
  2  3  1  0  0  0  0 
  3  4  1  0  0  0  0 
  4  5  2  0  0  0  0 
  5  6  2  0  0  0  0 
M  END
> <Name>
Isothiocyanic acid, allyl ester

> <Source>
DSSTox2DMolFile

> <Tox>
5.061

> <CAS>
57-06-7

$$$$

  CDK

  5  4  0  0  0  0  0  0  0  0999 V2000
    3.4567   -1.9945    0.0000 C   0  0  0  0  0  0  0  0  0  0  0  0
    2.3056   -1.3308    0.0000 C   0  0  0  0  0  0  0  0  0  0  0  0
    1.1511   -1.9945    0.0000 C   0  0  0  0  0  0  0  0  0  0  0  0
    2.3056   -0.0000    0.0000 O   0  0  0  0  0  0  0  0  0  0  0  0
    0.0000   -1.3308    0.0000 O   0  0  0  0  0  0  0  0  0  0  0  0
  1  2  1  0  0  0  0 
  2  3  1  0  0  0  0 
  2  4  1  0  0  0  0 
  3  5  1  0  0  0  0 
M  END
> <Name>
1,2-Propylene glycol

> <Source>
DSSTox2DMolFile

> <Tox>
0.490

> <CAS>
57-55-6

$$$$

  CDK

  5  5  0  0  0  0  0  0  0  0999 V2000
    0.0000   -0.9406    0.0000 O   0  0  0  0  0  0  0  0  0  0  0  0
    1.3291   -0.9406    0.0000 C   0  0  0  0  0  0  0  0  0  0  0  0
    2.2697   -0.0000    0.0000 C   0  0  0  0  0  0  0  0  0  0  0  0
    2.2697   -1.8812    0.0000 O   0  0  0  0  0  0  0  0  0  0  0  0
    3.2103   -0.9406    0.0000 C   0  0  0  0  0  0  0  0  0  0  0  0
  1  2  2  0  0  0  0 
  2  3  1  0  0  0  0 
  2  4  1  0  0  0  0 
  3  5  1  0  0  0  0 
  5  4  1  0  0  0  0 
M  END
> <Name>
Propiolactone

> <Source>
DSSTox2DMolFile

> <Tox>
2.875

> <CAS>
57-57-8

$$$$

  CDK

 13 14  0  0  0  0  0  0  0  0999 V2000
    2.3040   -5.3201    0.0000 C   0  0  0  0  0  0  0  0  0  0  0  0
    1.1490   -5.9843    0.0000 C   0  0  0  0  0  0  0  0  0  0  0  0
    2.3040   -3.9916    0.0000 C   0  0  0  0  0  0  0  0  0  0  0  0
    0.0000   -5.3201    0.0000 C   0  0  0  0  0  0  0  0  0  0  0  0
    1.1490   -3.3273    0.0000 C   0  0  0  0  0  0  0  0  0  0  0  0
    3.4530   -3.3273    0.0000 C   0  0  0  0  0  0  0  0  0  0  0  0
    0.0000   -3.9916    0.0000 C   0  0  0  0  0  0  0  0  0  0  0  0
    1.1490   -1.9928    0.0000 C   0  0  0  0  0  0  0  0  0  0  0  0
    3.4530   -1.9928    0.0000 C   0  0  0  0  0  0  0  0  0  0  0  0
    4.6079   -3.9916    0.0000 O   0  0  0  0  0  0  0  0  0  0  0  0
    0.0000   -1.3285    0.0000 O   0  0  0  0  0  0  0  0  0  0  0  0
    2.3040   -1.3285    0.0000 C   0  0  0  0  0  0  0  0  0  0  0  0
    2.3040   -0.0000    0.0000 C   0  0  0  0  0  0  0  0  0  0  0  0
  1  2  2  0  0  0  0 
  1  3  1  0  0  0  0 
  2  4  1  0  0  0  0 
  5  3  2  0  0  0  0 
  6  3  1  0  0  0  0 
  4  7  2  0  0  0  0 
  7  5  1  0  0  0  0 
  5  8  1  0  0  0  0 
  9  6  1  0  0  0  0 
  6 10  2  0  0  0  0 
  8 11  2  0  0  0  0 
  8 12  1  0  0  0  0 
 12  9  2  0  0  0  0 
 12 13  1  0  0  0  0 
M  END
> <Name>
1,4-Naphthalenedione, 2-methyl-

> <Source>
DSSTox2DMolFile

> <Tox>
4.540

> <CAS>
58-27-5

$$$$

  CDK

  9  9  0  0  0  0  0  0  0  0999 V2000
    4.6082   -2.6589    0.0000 O   0  0  0  0  0  0  0  0  0  0  0  0
    3.4561   -1.9953    0.0000 C   0  0  0  0  0  0  0  0  0  0  0  0
    2.3041   -2.6589    0.0000 C   0  0  0  0  0  0  0  0  0  0  0  0
    3.4561   -0.6636    0.0000 C   0  0  0  0  0  0  0  0  0  0  0  0
    1.1520   -1.9953    0.0000 C   0  0  0  0  0  0  0  0  0  0  0  0
    2.3041   -0.0000    0.0000 C   0  0  0  0  0  0  0  0  0  0  0  0
    0.0000   -2.6589    0.0000 C   0  0  0  0  0  0  0  0  0  0  0  0
    1.1520   -0.6636    0.0000 C   0  0  0  0  0  0  0  0  0  0  0  0
    0.0000   -0.0000    0.0000 Cl  0  0  0  0  0  0  0  0  0  0  0  0
  1  2  1  0  0  0  0 
  2  3  2  0  0  0  0 
  2  4  1  0  0  0  0 
  3  5  1  0  0  0  0 
  6  4  2  0  0  0  0 
  5  7  1  0  0  0  0 
  5  8  2  0  0  0  0 
  8  6  1  0  0  0  0 
  8  9  1  0  0  0  0 
M  END
> <Name>
Phenol, 4-chloro-3-methyl-

> <Source>
DSSTox2DMolFile

> <Tox>
3.800

> <CAS>
59-50-7

$$$$

  CDK

  9  9  0  0  0  0  0  0  0  0999 V2000
    2.0190   -3.4571    0.0000 C   0  0  0  0  0  0  0  0  0  0  0  0
    2.7151   -4.6076    0.0000 C   0  0  0  0  0  0  0  0  0  0  0  0
    0.6960   -3.4571    0.0000 C   0  0  0  0  0  0  0  0  0  0  0  0
    2.6518   -2.2952    0.0000 C   0  0  0  0  0  0  0  0  0  0  0  0
    2.0190   -5.7523    0.0000 C   0  0  0  0  0  0  0  0  0  0  0  0
    0.0000   -4.6076    0.0000 C   0  0  0  0  0  0  0  0  0  0  0  0
    1.9903   -1.1447    0.0000 C   0  0  0  0  0  0  0  0  0  0  0  0
    0.6960   -5.7523    0.0000 C   0  0  0  0  0  0  0  0  0  0  0  0
    2.6173   -0.0000    0.0000 O   0  0  0  0  0  0  0  0  0  0  0  0
  1  2  2  0  0  0  0 
  1  3  1  0  0  0  0 
  1  4  1  0  0  0  0 
  2  5  1  0  0  0  0 
  6  3  2  0  0  0  0 
  7  4  1  0  0  0  0 
  5  8  2  0  0  0  0 
  8  6  1  0  0  0  0 
  7  9  1  0  0  0  0 
M  END
> <Name>
Phenethyl alcohol

> <Source>
DSSTox2DMolFile

> <Tox>
2.410

> <CAS>
60-12-8

$$$$

  CDK

  4  3  0  0  0  0  0  0  0  0999 V2000
    1.9950   -0.0000    0.0000 C   0  0  0  0  0  0  0  0  0  0  0  0
    1.3292   -1.1518    0.0000 C   0  0  0  0  0  0  0  0  0  0  0  0
    1.9950   -2.3037    0.0000 O   0  0  0  0  0  0  0  0  0  0  0  0
    0.0000   -1.1518    0.0000 N   0  0  0  0  0  0  0  0  0  0  0  0
  1  2  1  0  0  0  0 
  2  3  2  0  0  0  0 
  2  4  1  0  0  0  0 
M  END
> <Name>
Acetamide

> <Source>
DSSTox2DMolFile

> <Tox>
0.678

> <CAS>
60-35-5

$$$$

  CDK

  7  7  0  0  0  0  0  0  0  0999 V2000
    0.0000   -1.1496    0.0000 N   0  0  0  0  0  0  0  0  0  0  0  0
    1.3292   -1.1496    0.0000 C   0  0  0  0  0  0  0  0  0  0  0  0
    1.9958   -0.0000    0.0000 C   0  0  0  0  0  0  0  0  0  0  0  0
    1.9958   -2.3032    0.0000 C   0  0  0  0  0  0  0  0  0  0  0  0
    3.3250   -0.0000    0.0000 C   0  0  0  0  0  0  0  0  0  0  0  0
    3.3250   -2.3032    0.0000 C   0  0  0  0  0  0  0  0  0  0  0  0
    3.9916   -1.1496    0.0000 C   0  0  0  0  0  0  0  0  0  0  0  0
  1  2  1  0  0  0  0 
  2  3  2  0  0  0  0 
  2  4  1  0  0  0  0 
  3  5  1  0  0  0  0 
  6  4  2  0  0  0  0 
  5  7  2  0  0  0  0 
  7  6  1  0  0  0  0 
M  END
> <Name>
Benzenamine

> <Source>
DSSTox2DMolFile

> <Tox>
2.770

> <CAS>
62-53-3

$$$$

  CDK

  4  3  0  0  0  0  0  0  0  0999 V2000
    1.9950   -0.0000    0.0000 N   0  0  0  0  0  0  0  0  0  0  0  0
    1.3292   -1.1518    0.0000 C   0  0  0  0  0  0  0  0  0  0  0  0
    1.9950   -2.3037    0.0000 S   0  0  0  0  0  0  0  0  0  0  0  0
    0.0000   -1.1518    0.0000 N   0  0  0  0  0  0  0  0  0  0  0  0
  1  2  1  0  0  0  0 
  2  3  2  0  0  0  0 
  2  4  1  0  0  0  0 
M  END
> <Name>
Urea, thio- (8CI)

> <Source>
DSSTox2DMolFile

> <Tox>
1.680

> <CAS>
62-56-6

$$$$

  CDK

  3  2  0  0  0  0  0  0  0  0999 V2000
    2.3030   -0.6656    0.0000 C   0  0  0  0  0  0  0  0  0  0  0  0
    1.1515   -0.0000    0.0000 C   0  0  0  0  0  0  0  0  0  0  0  0
    0.0000   -0.6656    0.0000 O   0  0  0  0  0  0  0  0  0  0  0  0
  1  2  1  0  0  0  0 
  2  3  1  0  0  0  0 
M  END
> <Name>
Ethyl alcohol

> <Source>
DSSTox2DMolFile

> <Tox>
1.009

> <CAS>
64-17-5

$$$$

  CDK

  9  8  0  0  0  0  0  0  0  0999 V2000
    0.0000   -0.0000    0.0000 C   0  0  0  0  0  0  0  0  0  0  0  0
    1.2665   -0.4222    0.0000 C   0  0  0  0  0  0  0  0  0  0  0  0
    1.5248   -1.7328    0.0000 O   0  0  0  0  0  0  0  0  0  0  0  0
    2.7787   -2.1549    0.0000 S   0  0  0  0  0  0  0  0  0  0  0  0
    4.0389   -2.5834    0.0000 O   0  0  0  0  0  0  0  0  0  0  0  0
    2.3566   -3.4088    0.0000 O   0  0  0  0  0  0  0  0  0  0  0  0
    3.2135   -0.8947    0.0000 O   0  0  0  0  0  0  0  0  0  0  0  0
    5.0344   -1.7076    0.0000 C   0  0  0  0  0  0  0  0  0  0  0  0
    6.3009   -2.1234    0.0000 C   0  0  0  0  0  0  0  0  0  0  0  0
  1  2  1  0  0  0  0 
  2  3  1  0  0  0  0 
  3  4  1  0  0  0  0 
  5  4  1  0  0  0  0 
  6  4  2  0  0  0  0 
  7  4  2  0  0  0  0 
  8  5  1  0  0  0  0 
  8  9  1  0  0  0  0 
M  END
> <Name>
Sulfuric acid, diethyl ester

> <Source>
DSSTox2DMolFile

> <Tox>
2.302

> <CAS>
64-67-5

$$$$

  CDK

 10 10  0  0  0  0  0  0  0  0999 V2000
    2.6582   -1.1499    0.0000 C   0  0  0  0  0  0  0  0  0  0  0  0
    1.9971   -0.0000    0.0000 O   0  0  0  0  0  0  0  0  0  0  0  0
    3.9896   -1.1499    0.0000 C   0  0  0  0  0  0  0  0  0  0  0  0
    1.9971   -2.3044    0.0000 C   0  0  0  0  0  0  0  0  0  0  0  0
    4.6553   -2.3044    0.0000 C   0  0  0  0  0  0  0  0  0  0  0  0
    2.6582   -3.4542    0.0000 C   0  0  0  0  0  0  0  0  0  0  0  0
    0.6657   -2.3044    0.0000 C   0  0  0  0  0  0  0  0  0  0  0  0
    3.9896   -3.4542    0.0000 C   0  0  0  0  0  0  0  0  0  0  0  0
    0.0000   -3.4542    0.0000 O   0  0  0  0  0  0  0  0  0  0  0  0
    0.0000   -1.1499    0.0000 N   0  0  0  0  0  0  0  0  0  0  0  0
  1  2  1  0  0  0  0 
  1  3  2  0  0  0  0 
  1  4  1  0  0  0  0 
  3  5  1  0  0  0  0 
  6  4  2  0  0  0  0 
  4  7  1  0  0  0  0 
  5  8  2  0  0  0  0 
  8  6  1  0  0  0  0 
  7  9  2  0  0  0  0 
  7 10  1  0  0  0  0 
M  END
> <Name>
Benzamide, 2-hydroxy-

> <Source>
DSSTox2DMolFile

> <Tox>
2.760

> <CAS>
65-45-2

$$$$

  CDK

 12 13  0  0  0  0  0  0  0  0999 V2000
   -1.2320    0.0892    0.0000 C   0  0  0  0  0  0  0  0  0  0  0  0
   -1.7350   -1.1913   -0.0001 C   0  0  0  0  0  0  0  0  0  0  0  0
    0.1827    0.2961    0.0000 C   0  0  0  0  0  0  0  0  0  0  0  0
   -2.1455    1.2593    0.0000 C   0  0  0  0  0  0  0  0  0  0  0  0
   -0.8721   -2.3095    0.0000 C   0  0  0  0  0  0  0  0  0  0  0  0
    1.0382   -0.8263    0.0000 C   0  0  0  0  0  0  0  0  0  0  0  0
    0.7641    1.5940    0.0000 C   0  0  0  0  0  0  0  0  0  0  0  0
   -3.3533    1.1714    0.0001 O   0  0  0  0  0  0  0  0  0  0  0  0
    0.4847   -2.1350    0.0000 C   0  0  0  0  0  0  0  0  0  0  0  0
    2.4470   -0.6365    0.0000 C   0  0  0  0  0  0  0  0  0  0  0  0
    2.1230    1.7527    0.0000 C   0  0  0  0  0  0  0  0  0  0  0  0
    2.9758    0.6252    0.0000 C   0  0  0  0  0  0  0  0  0  0  0  0
  1  2  2  0  0  0  0 
  1  3  1  0  0  0  0 
  1  4  1  0  0  0  0 
  2  5  1  0  0  0  0 
  6  3  1  0  0  0  0 
  7  3  2  0  0  0  0 
  4  8  2  0  0  0  0 
  5  9  2  0  0  0  0 
  9  6  1  0  0  0  0 
  6 10  2  0  0  0  0 
 11  7  1  0  0  0  0 
 10 12  1  0  0  0  0 
 12 11  2  0  0  0  0 
M  END
> <Name>
1-Naphthalenecarboxaldehyde

> <Source>
DougDB3DMolFile

> <Tox>
3.423

> <CAS>
66-77-3

$$$$

  CDK

 15 16  0  0  0  0  0  0  0  0999 V2000
    6.9060   -1.9981    0.0000 C   0  0  0  0  0  0  0  0  0  0  0  0
    8.0570   -2.6611    0.0000 C   0  0  0  0  0  0  0  0  0  0  0  0
    5.7550   -2.6611    0.0000 C   0  0  0  0  0  0  0  0  0  0  0  0
    6.9060   -0.6630    0.0000 C   0  0  0  0  0  0  0  0  0  0  0  0
    9.2080   -1.9981    0.0000 O   0  0  0  0  0  0  0  0  0  0  0  0
    4.6040   -1.9981    0.0000 C   0  0  0  0  0  0  0  0  0  0  0  0
    5.7550   -0.0000    0.0000 C   0  0  0  0  0  0  0  0  0  0  0  0
    4.6040   -0.6630    0.0000 C   0  0  0  0  0  0  0  0  0  0  0  0
    3.4530   -0.0000    0.0000 O   0  0  0  0  0  0  0  0  0  0  0  0
    2.3020   -0.6630    0.0000 C   0  0  0  0  0  0  0  0  0  0  0  0
    2.3020   -1.9981    0.0000 C   0  0  0  0  0  0  0  0  0  0  0  0
    1.1510   -0.0000    0.0000 C   0  0  0  0  0  0  0  0  0  0  0  0
    1.1510   -2.6611    0.0000 C   0  0  0  0  0  0  0  0  0  0  0  0
    0.0000   -0.6630    0.0000 C   0  0  0  0  0  0  0  0  0  0  0  0
    0.0000   -1.9981    0.0000 C   0  0  0  0  0  0  0  0  0  0  0  0
  1  2  1  0  0  0  0 
  1  3  2  0  0  0  0 
  1  4  1  0  0  0  0 
  2  5  2  0  0  0  0 
  3  6  1  0  0  0  0 
  7  4  2  0  0  0  0 
  6  8  2  0  0  0  0 
  8  7  1  0  0  0  0 
  8  9  1  0  0  0  0 
  9 10  1  0  0  0  0 
 10 11  2  0  0  0  0 
 10 12  1  0  0  0  0 
 11 13  1  0  0  0  0 
 14 12  2  0  0  0  0 
 13 15  2  0  0  0  0 
 15 14  1  0  0  0  0 
M  END
> <Name>
Benzaldehyde, 4-phenoxy- (9CI)

> <Source>
DSSTox2DMolFile

> <Tox>
4.260

> <CAS>
67-36-7

$$$$

  CDK

  2  1  0  0  0  0  0  0  0  0999 V2000
    0.0000   -0.0000    0.0000 C   0  0  0  0  0  0  0  0  0  0  0  0
    1.3300   -0.0000    0.0000 O   0  0  0  0  0  0  0  0  0  0  0  0
  1  2  1  0  0  0  0 
M  END
> <Name>
Methanol

> <Source>
DSSTox2DMolFile

> <Tox>
0.334

> <CAS>
67-56-1

$$$$

  CDK

  4  3  0  0  0  0  0  0  0  0999 V2000
    1.1518   -0.0000    0.0000 O   0  0  0  0  0  0  0  0  0  0  0  0
    1.1518   -1.3292    0.0000 C   0  0  0  0  0  0  0  0  0  0  0  0
    0.0000   -1.9950    0.0000 C   0  0  0  0  0  0  0  0  0  0  0  0
    2.3037   -1.9950    0.0000 C   0  0  0  0  0  0  0  0  0  0  0  0
  1  2  1  0  0  0  0 
  2  3  1  0  0  0  0 
  2  4  1  0  0  0  0 
M  END
> <Name>
Isopropyl alcohol

> <Source>
DSSTox2DMolFile

> <Tox>
1.118

> <CAS>
67-63-0

$$$$

  CDK

  4  3  0  0  0  0  0  0  0  0999 V2000
    1.9950   -0.0000    0.0000 C   0  0  0  0  0  0  0  0  0  0  0  0
    1.3292   -1.1518    0.0000 C   0  0  0  0  0  0  0  0  0  0  0  0
    1.9950   -2.3037    0.0000 C   0  0  0  0  0  0  0  0  0  0  0  0
    0.0000   -1.1518    0.0000 O   0  0  0  0  0  0  0  0  0  0  0  0
  1  2  1  0  0  0  0 
  2  3  1  0  0  0  0 
  2  4  2  0  0  0  0 
M  END
> <Name>
2-Propanone

> <Source>
DSSTox2DMolFile

> <Tox>
0.796

> <CAS>
67-64-1

$$$$

  CDK

  4  3  0  0  0  0  0  0  0  0999 V2000
    1.9950   -0.0000    0.0000 C   0  0  0  0  0  0  0  0  0  0  0  0
    1.3292   -1.1518    0.0000 S   0  0  0  0  0  0  0  0  0  0  0  0
    1.9950   -2.3037    0.0000 O   0  0  0  0  0  0  0  0  0  0  0  0
    0.0000   -1.1518    0.0000 C   0  0  0  0  0  0  0  0  0  0  0  0
  1  2  1  0  0  0  0 
  2  3  2  0  0  0  0 
  2  4  1  0  0  0  0 
M  END
> <Name>
Sulfinylbis-methane (9CI)

> <Source>
DSSTox2DMolFile

> <Tox>
0.548

> <CAS>
67-68-5

$$$$

  CDK

  5  4  0  0  0  0  0  0  0  0999 V2000
    2.7919    2.2812    0.8612 C   0  0  0  0  0  0  0  0  0  0  0  0
    2.3310    1.4525    2.3826 S   0  0  0  0  0  0  0  0  0  0  0  0
    0.6269    1.9902    2.5253 C   0  0  0  0  0  0  0  0  0  0  0  0
    3.1100    2.0120    3.4940 O   0  0  0  0  0  0  0  0  0  0  0  0
    2.3645    0.0000    2.1723 O   0  0  0  0  0  0  0  0  0  0  0  0
  1  2  1  0  0  0  0 
  2  3  1  0  0  0  0 
  2  4  2  0  0  0  0 
  2  5  2  0  0  0  0 
M  END
> <Name>
Methane, sulfonylbis-

> <Source>
NIST3DMolFile

> <Tox>
0.800

> <CAS>
67-71-0

$$$$

  CDK

 10 10  0  0  0  0  0  0  0  0999 V2000
    2.2984   -2.0134    0.0000 C   0  0  0  0  0  0  0  0  0  0  0  0
    3.4568   -1.3468    0.0000 C   0  0  0  0  0  0  0  0  0  0  0  0
    2.2984   -3.3281    0.0000 C   0  0  0  0  0  0  0  0  0  0  0  0
    1.1584   -1.3468    0.0000 C   0  0  0  0  0  0  0  0  0  0  0  0
    3.4568   -0.0000    0.0000 O   0  0  0  0  0  0  0  0  0  0  0  0
    4.5968   -2.0134    0.0000 O   0  0  0  0  0  0  0  0  0  0  0  0
    3.4568   -4.0268    0.0000 O   0  0  0  0  0  0  0  0  0  0  0  0
    1.1584   -3.9946    0.0000 C   0  0  0  0  0  0  0  0  0  0  0  0
    0.0000   -2.0134    0.0000 C   0  0  0  0  0  0  0  0  0  0  0  0
    0.0000   -3.3281    0.0000 C   0  0  0  0  0  0  0  0  0  0  0  0
  1  2  1  0  0  0  0 
  1  3  2  0  0  0  0 
  1  4  1  0  0  0  0 
  2  5  2  0  0  0  0 
  2  6  1  0  0  0  0 
  3  7  1  0  0  0  0 
  3  8  1  0  0  0  0 
  4  9  2  0  0  0  0 
  8 10  2  0  0  0  0 
  9 10  1  0  0  0  0 
M  END
> <Name>
Benzoic acid, 2-hydroxy-

> <Source>
DSSTox2DMolFile

> <Tox>
2.490

> <CAS>
69-72-7

$$$$

  CDK

 10 10  0  0  0  0  0  0  0  0999 V2000
    0.9096   -0.2975    6.7767 Br  0  0  0  0  0  0  0  0  0  0  0  0
    0.6534   -0.2846    4.8502 C   0  0  0  0  0  0  0  0  0  0  0  0
    1.8333   -0.9446    4.1336 C   0  0  0  0  0  0  0  0  0  0  0  0
    2.7641   -1.4614    4.7833 O   0  0  0  0  0  0  0  0  0  0  0  0
    1.8509   -0.9767    2.6799 C   0  0  0  0  0  0  0  0  0  0  0  0
    0.8008   -0.4105    1.9570 C   0  0  0  0  0  0  0  0  0  0  0  0
    2.9180   -1.5734    2.0082 C   0  0  0  0  0  0  0  0  0  0  0  0
    0.8176   -0.4410    0.5626 C   0  0  0  0  0  0  0  0  0  0  0  0
    2.9348   -1.6038    0.6137 C   0  0  0  0  0  0  0  0  0  0  0  0
    1.8846   -1.0376   -0.1090 C   0  0  0  0  0  0  0  0  0  0  0  0
  1  2  1  0  0  0  0 
  3  2  1  0  0  0  0 
  4  3  2  0  0  0  0 
  5  3  1  0  0  0  0 
  5  6  2  0  0  0  0 
  5  7  1  0  0  0  0 
  6  8  1  0  0  0  0 
  7  9  2  0  0  0  0 
  8 10  2  0  0  0  0 
  9 10  1  0  0  0  0 
M  END
> <Name>
Acetophenone, 2-bromo- (8CI)

> <Source>
Chemidplus3DMolFile

> <Tox>
5.824

> <CAS>
70-11-1

$$$$

  CDK

 13 13  0  0  0  0  0  0  0  0999 V2000
    5.7563   -2.6605    0.0000 N   0  0  0  0  0  0  0  0  0  0  0  0
    5.7563   -3.9873    0.0000 O   0  0  0  0  0  0  0  0  0  0  0  0
    6.9103   -1.9902    0.0000 O   0  0  0  0  0  0  0  0  0  0  0  0
    4.6092   -1.9902    0.0000 C   0  0  0  0  0  0  0  0  0  0  0  0
    3.4552   -2.6605    0.0000 C   0  0  0  0  0  0  0  0  0  0  0  0
    4.6092   -0.6634    0.0000 C   0  0  0  0  0  0  0  0  0  0  0  0
    2.3011   -1.9902    0.0000 C   0  0  0  0  0  0  0  0  0  0  0  0
    3.4552   -0.0000    0.0000 C   0  0  0  0  0  0  0  0  0  0  0  0
    5.7563   -0.0000    0.0000 F   0  0  0  0  0  0  0  0  0  0  0  0
    2.3011   -0.6634    0.0000 C   0  0  0  0  0  0  0  0  0  0  0  0
    1.1540   -2.6605    0.0000 N   0  0  0  0  0  0  0  0  0  0  0  0
    1.1540   -3.9873    0.0000 O   0  0  0  0  0  0  0  0  0  0  0  0
    0.0000   -1.9902    0.0000 O   0  0  0  0  0  0  0  0  0  0  0  0
  1  2  2  0  0  0  0 
  1  3  1  0  0  0  0 
  1  4  1  0  0  0  0 
  4  5  2  0  0  0  0 
  4  6  1  0  0  0  0 
  5  7  1  0  0  0  0 
  8  6  2  0  0  0  0 
  6  9  1  0  0  0  0 
  7 10  2  0  0  0  0 
  7 11  1  0  0  0  0 
 10  8  1  0  0  0  0 
 11 12  2  0  0  0  0 
 11 13  1  0  0  0  0 
M  CHG  1   1   1
M  CHG  1   3  -1
M  CHG  1  11   1
M  CHG  1  13  -1
M  END
> <Name>
Benzene, 1-fluoro-2,4-dinitro-

> <Source>
DSSTox2DMolFile

> <Tox>
4.710

> <CAS>
70-34-8

$$$$

  CDK

 11 11  0  0  0  0  0  0  0  0999 V2000
    1.9925   -3.4525    0.0000 C   0  0  0  0  0  0  0  0  0  0  0  0
    1.3283   -2.3037    0.0000 C   0  0  0  0  0  0  0  0  0  0  0  0
    3.3269   -3.4525    0.0000 C   0  0  0  0  0  0  0  0  0  0  0  0
    0.0000   -2.3037    0.0000 O   0  0  0  0  0  0  0  0  0  0  0  0
    1.9925   -1.1488    0.0000 C   0  0  0  0  0  0  0  0  0  0  0  0
    3.9910   -2.3037    0.0000 C   0  0  0  0  0  0  0  0  0  0  0  0
    3.3269   -1.1488    0.0000 C   0  0  0  0  0  0  0  0  0  0  0  0
    5.3194   -2.3037    0.0000 C   0  0  0  0  0  0  0  0  0  0  0  0
    5.9835   -3.4525    0.0000 O   0  0  0  0  0  0  0  0  0  0  0  0
    5.9835   -1.1488    0.0000 C   0  0  0  0  0  0  0  0  0  0  0  0
    5.3194   -0.0000    0.0000 C   0  0  0  0  0  0  0  0  0  0  0  0
  1  2  2  0  0  0  0 
  1  3  1  0  0  0  0 
  2  4  1  0  0  0  0 
  2  5  1  0  0  0  0 
  6  3  2  0  0  0  0 
  5  7  2  0  0  0  0 
  7  6  1  0  0  0  0 
  6  8  1  0  0  0  0 
  8  9  2  0  0  0  0 
  8 10  1  0  0  0  0 
 10 11  1  0  0  0  0 
M  END
> <Name>
1-Propanone, 1-(4-hydroxyphenyl)-

> <Source>
DSSTox2DMolFile

> <Tox>
3.120

> <CAS>
70-70-2

$$$$

  CDK

  4  3  0  0  0  0  0  0  0  0999 V2000
    0.0000   -0.0000    0.0000 O   0  0  0  0  0  0  0  0  0  0  0  0
    1.1513   -0.6638    0.0000 C   0  0  0  0  0  0  0  0  0  0  0  0
    2.3061   -0.0000    0.0000 C   0  0  0  0  0  0  0  0  0  0  0  0
    3.4575   -0.6638    0.0000 C   0  0  0  0  0  0  0  0  0  0  0  0
  1  2  1  0  0  0  0 
  2  3  1  0  0  0  0 
  3  4  1  0  0  0  0 
M  END
> <Name>
Propyl alcohol

> <Source>
DSSTox2DMolFile

> <Tox>
1.254

> <CAS>
71-23-8

$$$$

  CDK

  6  5  0  0  0  0  0  0  0  0999 V2000
    0.0000   -0.6630    0.0000 C   0  0  0  0  0  0  0  0  0  0  0  0
    1.1530   -0.0000    0.0000 C   0  0  0  0  0  0  0  0  0  0  0  0
    2.3060   -0.6630    0.0000 C   0  0  0  0  0  0  0  0  0  0  0  0
    3.4590   -0.0000    0.0000 C   0  0  0  0  0  0  0  0  0  0  0  0
    4.6119   -0.6630    0.0000 C   0  0  0  0  0  0  0  0  0  0  0  0
    5.7649   -0.0000    0.0000 O   0  0  0  0  0  0  0  0  0  0  0  0
  1  2  1  0  0  0  0 
  2  3  1  0  0  0  0 
  3  4  1  0  0  0  0 
  4  5  1  0  0  0  0 
  5  6  1  0  0  0  0 
M  END
> <Name>
Pentyl alcohol

> <Source>
DSSTox2DMolFile

> <Tox>
1.970

> <CAS>
71-41-0

$$$$

  CDK

  6  6  0  0  0  0  0  0  0  0999 V2000
    2.3036   -1.9950    0.0000 C   0  0  0  0  0  0  0  0  0  0  0  0
    1.1518   -2.6600    0.0000 C   0  0  0  0  0  0  0  0  0  0  0  0
    2.3036   -0.6650    0.0000 C   0  0  0  0  0  0  0  0  0  0  0  0
    0.0000   -1.9950    0.0000 C   0  0  0  0  0  0  0  0  0  0  0  0
    1.1518   -0.0000    0.0000 C   0  0  0  0  0  0  0  0  0  0  0  0
    0.0000   -0.6650    0.0000 C   0  0  0  0  0  0  0  0  0  0  0  0
  1  2  2  0  0  0  0 
  1  3  1  0  0  0  0 
  2  4  1  0  0  0  0 
  5  3  2  0  0  0  0 
  4  6  2  0  0  0  0 
  6  5  1  0  0  0  0 
M  END
> <Name>
Benzene, pure

> <Source>
DSSTox2DMolFile

> <Tox>
2.880

> <CAS>
71-43-2

$$$$

  CDK

 10 10  0  0  0  0  0  0  0  0999 V2000
    0.6640   -1.1546    0.0000 C   0  0  0  0  0  0  0  0  0  0  0  0
    0.0000   -0.0000    0.0000 O   0  0  0  0  0  0  0  0  0  0  0  0
    0.0000   -2.3031    0.0000 O   0  0  0  0  0  0  0  0  0  0  0  0
    1.9921   -1.1546    0.0000 C   0  0  0  0  0  0  0  0  0  0  0  0
    2.6561   -0.0000    0.0000 C   0  0  0  0  0  0  0  0  0  0  0  0
    2.6561   -2.3031    0.0000 C   0  0  0  0  0  0  0  0  0  0  0  0
    3.9901   -0.0000    0.0000 C   0  0  0  0  0  0  0  0  0  0  0  0
    3.9901   -2.3031    0.0000 C   0  0  0  0  0  0  0  0  0  0  0  0
    4.6542   -1.1546    0.0000 C   0  0  0  0  0  0  0  0  0  0  0  0
    5.9822   -1.1546    0.0000 Cl  0  0  0  0  0  0  0  0  0  0  0  0
  1  2  2  0  0  0  0 
  1  3  1  0  0  0  0 
  1  4  1  0  0  0  0 
  4  5  2  0  0  0  0 
  4  6  1  0  0  0  0 
  5  7  1  0  0  0  0 
  8  6  2  0  0  0  0 
  7  9  2  0  0  0  0 
  9  8  1  0  0  0  0 
  9 10  1  0  0  0  0 
M  END
> <Name>
Benzoic acid, 4-chloro-

> <Source>
DSSTox2DMolFile

> <Tox>
3.110

> <CAS>
74-11-3

$$$$

  CDK

  3  2  0  0  0  0  0  0  0  0999 V2000
    2.6600   -0.0000    0.0000 C   0  0  0  0  0  0  0  0  0  0  0  0
    1.3300   -0.0000    0.0000 C   0  0  0  0  0  0  0  0  0  0  0  0
    0.0000   -0.0000    0.0000 N   0  0  0  0  0  0  0  0  0  0  0  0
  1  2  1  0  0  0  0 
  2  3  3  0  0  0  0 
M  END
> <Name>
Acetonitrile

> <Source>
DSSTox2DMolFile

> <Tox>
0.723

> <CAS>
75-05-8

$$$$

  CDK

  4  3  0  0  0  0  0  0  0  0999 V2000
    1.3292   -1.1518    0.0000 C   0  0  0  0  0  0  0  0  0  0  0  0
    1.9950   -0.0000    0.0000 C   0  0  0  0  0  0  0  0  0  0  0  0
    1.9950   -2.3037    0.0000 C   0  0  0  0  0  0  0  0  0  0  0  0
    0.0000   -1.1518    0.0000 N   0  0  0  0  0  0  0  0  0  0  0  0
  1  2  1  0  0  0  0 
  1  3  1  0  0  0  0 
  1  4  1  0  0  0  0 
M  END
> <Name>
2-Aminopropane

> <Source>
DSSTox2DMolFile

> <Tox>
2.137

> <CAS>
75-31-0

$$$$

  CDK

  5  4  0  0  0  0  0  0  0  0999 V2000
    1.3300   -1.3300    0.0000 C   0  0  0  0  0  0  0  0  0  0  0  0
    1.3300   -2.6600    0.0000 C   0  0  0  0  0  0  0  0  0  0  0  0
    0.0000   -1.3300    0.0000 C   0  0  0  0  0  0  0  0  0  0  0  0
    1.3300   -0.0000    0.0000 C   0  0  0  0  0  0  0  0  0  0  0  0
    2.6600   -1.3300    0.0000 N   0  0  0  0  0  0  0  0  0  0  0  0
  1  2  1  0  0  0  0 
  1  3  1  0  0  0  0 
  1  4  1  0  0  0  0 
  1  5  1  0  0  0  0 
M  END
> <Name>
2-Propanamine, 2-methyl-

> <Source>
DSSTox2DMolFile

> <Tox>
2.103

> <CAS>
75-64-9

$$$$

  CDK

  5  4  0  0  0  0  0  0  0  0999 V2000
    1.3300   -1.3300    0.0000 C   0  0  0  0  0  0  0  0  0  0  0  0
    1.3300   -2.6600    0.0000 C   0  0  0  0  0  0  0  0  0  0  0  0
    0.0000   -1.3300    0.0000 C   0  0  0  0  0  0  0  0  0  0  0  0
    1.3300   -0.0000    0.0000 C   0  0  0  0  0  0  0  0  0  0  0  0
    2.6600   -1.3300    0.0000 O   0  0  0  0  0  0  0  0  0  0  0  0
  1  2  1  0  0  0  0 
  1  3  1  0  0  0  0 
  1  4  1  0  0  0  0 
  1  5  1  0  0  0  0 
M  END
> <Name>
2-Propanol, 2-methyl-

> <Source>
DSSTox2DMolFile

> <Tox>
1.209

> <CAS>
75-65-0

$$$$

  CDK

  6  5  0  0  0  0  0  0  0  0999 V2000
    1.1503   -1.1537    0.0000 C   0  0  0  0  0  0  0  0  0  0  0  0
    0.4870   -0.0000    0.0000 Br  0  0  0  0  0  0  0  0  0  0  0  0
    1.8169   -2.3040    0.0000 Br  0  0  0  0  0  0  0  0  0  0  0  0
    0.0000   -1.8169    0.0000 Br  0  0  0  0  0  0  0  0  0  0  0  0
    2.3040   -0.4870    0.0000 C   0  0  0  0  0  0  0  0  0  0  0  0
    3.4542   -1.1537    0.0000 O   0  0  0  0  0  0  0  0  0  0  0  0
  1  2  1  0  0  0  0 
  1  3  1  0  0  0  0 
  1  4  1  0  0  0  0 
  1  5  1  0  0  0  0 
  5  6  1  0  0  0  0 
M  END
> <Name>
Ethanol, 2,2,2-tribromo-

> <Source>
DSSTox2DMolFile

> <Tox>
3.113

> <CAS>
75-80-9

$$$$

  CDK

  6  5  0  0  0  0  0  0  0  0999 V2000
    0.9941    0.9941    0.0000 C   0  0  0  0  0  0  0  0  0  0  0  0
    0.9941    1.9882    0.0000 C   0  0  0  0  0  0  0  0  0  0  0  0
    0.9941    0.0000    0.0000 C   0  0  0  0  0  0  0  0  0  0  0  0
    0.0000    0.9941    0.0000 C   0  0  0  0  0  0  0  0  0  0  0  0
    1.9882    0.9941    0.0000 C   0  0  0  0  0  0  0  0  0  0  0  0
    2.4853    0.0994    0.0000 O   0  0  0  0  0  0  0  0  0  0  0  0
  1  2  1  0  0  0  0 
  1  3  1  0  0  0  0 
  1  4  1  0  0  0  0 
  1  5  1  0  0  0  0 
  5  6  1  0  0  0  0 
M  END
> <Name>
1-Propanol, 2,2-dimethyl-

> <Source>
NIST2DMolFile

> <Tox>
2.130

> <CAS>
75-84-3

$$$$

  CDK

  6  5  0  0  0  0  0  0  0  0999 V2000
    0.4637    1.3681   -0.6866 C   0  0  0  0  0  0  0  0  0  0  0  0
    0.4174   -0.0056   -0.0103 C   0  0  0  0  0  0  0  0  0  0  0  0
   -0.8709   -0.7592   -0.4181 C   0  0  0  0  0  0  0  0  0  0  0  0
    0.4543    0.2462    1.3901 O   0  0  0  0  0  0  0  0  0  0  0  0
    1.6405   -0.8367   -0.4249 C   0  0  0  0  0  0  0  0  0  0  0  0
   -2.1313   -0.0306   -0.0103 C   0  0  0  0  0  0  0  0  0  0  0  0
  1  2  1  0  0  0  0 
  2  3  1  0  0  0  0 
  2  4  1  0  0  0  0 
  2  5  1  0  0  0  0 
  3  6  1  0  0  0  0 
M  END
> <Name>
2-Butanol, 2-methyl-

> <Source>
DougDB3DMolFile

> <Tox>
1.827

> <CAS>
75-85-4

$$$$

  CDK

  7  6  0  0  0  0  0  0  0  0999 V2000
    0.1796   -0.0000    0.0000 C   0  0  0  0  0  0  0  0  0  0  0  0
    1.3304   -0.6652    0.0000 C   0  0  0  0  0  0  0  0  0  0  0  0
    2.4812   -0.0000    0.0000 O   0  0  0  0  0  0  0  0  0  0  0  0
    1.3304   -1.9956    0.0000 C   0  0  0  0  0  0  0  0  0  0  0  0
    2.6608   -1.9956    0.0000 C   0  0  0  0  0  0  0  0  0  0  0  0
    1.3304   -3.3260    0.0000 C   0  0  0  0  0  0  0  0  0  0  0  0
    0.0000   -1.9956    0.0000 C   0  0  0  0  0  0  0  0  0  0  0  0
  1  2  1  0  0  0  0 
  2  3  2  0  0  0  0 
  2  4  1  0  0  0  0 
  4  5  1  0  0  0  0 
  4  6  1  0  0  0  0 
  4  7  1  0  0  0  0 
M  END
> <Name>
2-Butanone, 3,3-dimethyl-

> <Source>
DSSTox2DMolFile

> <Tox>
1.558

> <CAS>
75-97-8

$$$$

  CDK

  7  6  0  0  0  0  0  0  0  0999 V2000
    1.1520   -1.3284    0.0000 C   0  0  0  0  0  0  0  0  0  0  0  0
    2.3075   -1.9857    0.0000 C   0  0  0  0  0  0  0  0  0  0  0  0
    0.0000   -1.9857    0.0000 O   0  0  0  0  0  0  0  0  0  0  0  0
    1.1520   -0.0000    0.0000 O   0  0  0  0  0  0  0  0  0  0  0  0
    3.4595   -2.6569    0.0000 C   0  0  0  0  0  0  0  0  0  0  0  0
    2.9613   -0.8303    0.0000 C   0  0  0  0  0  0  0  0  0  0  0  0
    1.6329   -3.1378    0.0000 C   0  0  0  0  0  0  0  0  0  0  0  0
  1  2  1  0  0  0  0 
  1  3  1  0  0  0  0 
  1  4  2  0  0  0  0 
  2  5  1  0  0  0  0 
  2  6  1  0  0  0  0 
  2  7  1  0  0  0  0 
M  END
> <Name>
Propanoic acid, 2,2-dimethyl-

> <Source>
DSSTox2DMolFile

> <Tox>
2.746

> <CAS>
75-98-9

$$$$

  CDK

  7  6  0  0  0  0  0  0  0  0999 V2000
    4.2985   -2.4802    0.0000 C   0  0  0  0  0  0  0  0  0  0  0  0
    3.1465   -1.8140    0.0000 C   0  0  0  0  0  0  0  0  0  0  0  0
    1.9945   -1.1520    0.0000 C   0  0  0  0  0  0  0  0  0  0  0  0
    2.6608   -0.0000    0.0000 O   0  0  0  0  0  0  0  0  0  0  0  0
    0.8425   -0.4857    0.0000 C   0  0  0  0  0  0  0  0  0  0  0  0
    1.3282   -2.3040    0.0000 C   0  0  0  0  0  0  0  0  0  0  0  0
    0.0000   -2.3040    0.0000 C   0  0  0  0  0  0  0  0  0  0  0  0
  1  2  3  0  0  0  0 
  2  3  1  0  0  0  0 
  3  4  1  0  0  0  0 
  3  5  1  0  0  0  0 
  3  6  1  0  0  0  0 
  6  7  1  0  0  0  0 
M  END
> <Name>
1-Pentyn-3-ol, 3-methyl-

> <Source>
DSSTox2DMolFile

> <Tox>
1.677

> <CAS>
77-75-8

$$$$

  CDK

  7  6  0  0  0  0  0  0  0  0999 V2000
    2.2319   -0.9463    0.0000 S   0  0  0  0  0  0  0  0  0  0  0  0
    3.1649   -0.0000    0.0000 O   0  0  0  0  0  0  0  0  0  0  0  0
    1.2856   -0.0134    0.0000 O   0  0  0  0  0  0  0  0  0  0  0  0
    3.1783   -1.8748    0.0000 C   0  0  0  0  0  0  0  0  0  0  0  0
    1.2856   -1.8927    0.0000 C   0  0  0  0  0  0  0  0  0  0  0  0
    4.4639   -1.5400    0.0000 C   0  0  0  0  0  0  0  0  0  0  0  0
    0.0000   -1.5534    0.0000 C   0  0  0  0  0  0  0  0  0  0  0  0
  1  2  2  0  0  0  0 
  1  3  2  0  0  0  0 
  1  4  1  0  0  0  0 
  1  5  1  0  0  0  0 
  4  6  2  0  0  0  0 
  5  7  2  0  0  0  0 
M  END
> <Name>
Ethene, 1,1'-sulfonylbis-

> <Source>
DSSTox2DMolFile

> <Tox>
4.410

> <CAS>
77-77-0

$$$$

  CDK

  5  4  0  0  0  0  0  0  0  0999 V2000
    0.0000   -1.3308    0.0000 N   0  0  0  0  0  0  0  0  0  0  0  0
    1.1511   -1.9945    0.0000 C   0  0  0  0  0  0  0  0  0  0  0  0
    2.3056   -1.3308    0.0000 C   0  0  0  0  0  0  0  0  0  0  0  0
    2.3056   -0.0000    0.0000 C   0  0  0  0  0  0  0  0  0  0  0  0
    3.4567   -1.9945    0.0000 C   0  0  0  0  0  0  0  0  0  0  0  0
  1  2  1  0  0  0  0 
  2  3  1  0  0  0  0 
  3  4  1  0  0  0  0 
  3  5  1  0  0  0  0 
M  END
> <Name>
1-Propanamine, 2-methyl-

> <Source>
DSSTox2DMolFile

> <Tox>
2.738

> <CAS>
78-81-9

$$$$

  CDK

  5  4  0  0  0  0  0  0  0  0999 V2000
    1.1488   -0.6693    0.0000 C   0  0  0  0  0  0  0  0  0  0  0  0
    2.3011   -1.3420    0.0000 C   0  0  0  0  0  0  0  0  0  0  0  0
    0.0000   -0.0000    0.0000 N   0  0  0  0  0  0  0  0  0  0  0  0
    3.4500   -0.6693    0.0000 C   0  0  0  0  0  0  0  0  0  0  0  0
    2.3011   -2.6668    0.0000 C   0  0  0  0  0  0  0  0  0  0  0  0
  1  2  1  0  0  0  0 
  1  3  3  0  0  0  0 
  2  4  1  0  0  0  0 
  2  5  1  0  0  0  0 
M  END
> <Name>
Propanenitrile, 2-methyl-

> <Source>
DSSTox2DMolFile

> <Tox>
1.381

> <CAS>
78-82-0

$$$$

  CDK

  5  4  0  0  0  0  0  0  0  0999 V2000
    3.4567   -1.9945    0.0000 C   0  0  0  0  0  0  0  0  0  0  0  0
    2.3056   -1.3308    0.0000 C   0  0  0  0  0  0  0  0  0  0  0  0
    2.3056   -0.0000    0.0000 C   0  0  0  0  0  0  0  0  0  0  0  0
    1.1511   -1.9945    0.0000 C   0  0  0  0  0  0  0  0  0  0  0  0
    0.0000   -1.3308    0.0000 O   0  0  0  0  0  0  0  0  0  0  0  0
  1  2  1  0  0  0  0 
  2  3  1  0  0  0  0 
  2  4  1  0  0  0  0 
  4  5  2  0  0  0  0 
M  END
> <Name>
Propanal, 2-methyl-

> <Source>
DSSTox2DMolFile

> <Tox>
2.567

> <CAS>
78-84-2

$$$$

  CDK

  5  4  0  0  0  0  0  0  0  0999 V2000
   -0.8398    0.6197   -0.0115 C   0  0  0  0  0  0  0  0  0  0  0  0
   -1.8389   -0.0617    0.0094 O   0  0  0  0  0  0  0  0  0  0  0  0
    0.5424    0.0659   -0.0022 C   0  0  0  0  0  0  0  0  0  0  0  0
    0.7107   -1.4085   -0.0031 C   0  0  0  0  0  0  0  0  0  0  0  0
    1.5831    0.9017    0.0066 C   0  0  0  0  0  0  0  0  0  0  0  0
  1  2  2  0  0  0  0 
  1  3  1  0  0  0  0 
  3  4  1  0  0  0  0 
  3  5  2  0  0  0  0 
M  END
> <Name>
2-Propenal, 2-methyl-

> <Source>
DougDB3DMolFile

> <Tox>
3.670

> <CAS>
78-85-3

$$$$

  CDK

  5  4  0  0  0  0  0  0  0  0999 V2000
    3.4567   -1.9945    0.0000 C   0  0  0  0  0  0  0  0  0  0  0  0
    2.3056   -1.3308    0.0000 C   0  0  0  0  0  0  0  0  0  0  0  0
    1.1511   -1.9945    0.0000 C   0  0  0  0  0  0  0  0  0  0  0  0
    2.3056   -0.0000    0.0000 O   0  0  0  0  0  0  0  0  0  0  0  0
    0.0000   -1.3308    0.0000 C   0  0  0  0  0  0  0  0  0  0  0  0
  1  2  1  0  0  0  0 
  2  3  1  0  0  0  0 
  2  4  2  0  0  0  0 
  3  5  1  0  0  0  0 
M  END
> <Name>
Methyl ethyl ketone

> <Source>
DSSTox2DMolFile

> <Tox>
1.254

> <CAS>
78-93-3

$$$$

  CDK

  5  4  0  0  0  0  0  0  0  0999 V2000
    2.1563    2.4530    1.2204 C   0  0  0  0  0  0  0  0  0  0  0  0
    0.8789    1.7142    1.5534 C   0  0  0  0  0  0  0  0  0  0  0  0
    3.3793    1.6408    1.5956 C   0  0  0  0  0  0  0  0  0  0  0  0
    3.7376    0.5621    0.7850 N   0  0  0  0  0  0  0  0  0  0  0  0
    4.0978    1.8651    2.5635 O   0  0  0  0  0  0  0  0  0  0  0  0
  1  2  1  0  0  0  0 
  1  3  1  0  0  0  0 
  3  4  1  0  0  0  0 
  3  5  2  0  0  0  0 
M  END
> <Name>
Propionamide

> <Source>
NIST3DMolFile

> <Tox>
0.910

> <CAS>
79-05-0

$$$$

  CDK

  5  4  0  0  0  0  0  0  0  0999 V2000
    3.4567   -1.9945    0.0000 N   0  0  0  0  0  0  0  0  0  0  0  0
    2.3056   -1.3308    0.0000 C   0  0  0  0  0  0  0  0  0  0  0  0
    2.3056   -0.0000    0.0000 O   0  0  0  0  0  0  0  0  0  0  0  0
    1.1511   -1.9945    0.0000 C   0  0  0  0  0  0  0  0  0  0  0  0
    0.0000   -1.3308    0.0000 C   0  0  0  0  0  0  0  0  0  0  0  0
  1  2  1  0  0  0  0 
  2  3  2  0  0  0  0 
  2  4  1  0  0  0  0 
  4  5  2  0  0  0  0 
M  END
> <Name>
2-Propenamide

> <Source>
DSSTox2DMolFile

> <Tox>
2.193

> <CAS>
79-06-1

$$$$

  CDK

  5  4  0  0  0  0  0  0  0  0999 V2000
    1.0376   -0.0820   -0.0451 C   0  0  0  0  0  0  0  0  0  0  0  0
   -0.2233   -0.8617   -0.3344 C   0  0  0  0  0  0  0  0  0  0  0  0
    2.1087   -0.6144    0.2295 O   0  0  0  0  0  0  0  0  0  0  0  0
    1.0171    1.3068   -0.1219 N   0  0  0  0  0  0  0  0  0  0  0  0
   -1.6720    0.0609    0.1139 Cl  0  0  0  0  0  0  0  0  0  0  0  0
  1  2  1  0  0  0  0 
  1  3  2  0  0  0  0 
  1  4  1  0  0  0  0 
  2  5  1  0  0  0  0 
M  END
> <Name>
Acetamide, 2-chloro-

> <Source>
DougDB3DMolFile

> <Tox>
3.036

> <CAS>
79-07-2

$$$$

  CDK

  5  4  0  0  0  0  0  0  0  0999 V2000
    2.3056   -0.0000    0.0000 O   0  0  0  0  0  0  0  0  0  0  0  0
    2.3056   -1.3308    0.0000 C   0  0  0  0  0  0  0  0  0  0  0  0
    3.4567   -1.9945    0.0000 O   0  0  0  0  0  0  0  0  0  0  0  0
    1.1511   -1.9945    0.0000 C   0  0  0  0  0  0  0  0  0  0  0  0
    0.0000   -1.3308    0.0000 C   0  0  0  0  0  0  0  0  0  0  0  0
  1  2  2  0  0  0  0 
  2  3  1  0  0  0  0 
  2  4  1  0  0  0  0 
  4  5  1  0  0  0  0 
M  END
> <Name>
Propanoic acid

> <Source>
DSSTox2DMolFile

> <Tox>
2.488

> <CAS>
79-09-4

$$$$

  CDK

  5  4  0  0  0  0  0  0  0  0999 V2000
   -0.5106   -0.1006    0.0006 C   0  0  0  0  0  0  0  0  0  0  0  0
   -1.8242    0.6386    0.0010 C   0  0  0  0  0  0  0  0  0  0  0  0
   -0.4021   -1.3204   -0.0004 O   0  0  0  0  0  0  0  0  0  0  0  0
    0.6598    0.6784   -0.0033 N   0  0  0  0  0  0  0  0  0  0  0  0
    2.0055    0.0945    0.0017 C   0  0  0  0  0  0  0  0  0  0  0  0
  1  2  1  0  0  0  0 
  1  3  2  0  0  0  0 
  1  4  1  0  0  0  0 
  4  5  1  0  0  0  0 
M  END
> <Name>
Acetamide, N-methyl-

> <Source>
DougDB3DMolFile

> <Tox>
1.020

> <CAS>
79-16-3

$$$$

  CDK

  5  4  0  0  0  0  0  0  0  0999 V2000
    3.4567   -1.9945    0.0000 C   0  0  0  0  0  0  0  0  0  0  0  0
    2.3056   -1.3308    0.0000 C   0  0  0  0  0  0  0  0  0  0  0  0
    2.3056   -0.0000    0.0000 O   0  0  0  0  0  0  0  0  0  0  0  0
    1.1511   -1.9945    0.0000 O   0  0  0  0  0  0  0  0  0  0  0  0
    0.0000   -1.3308    0.0000 C   0  0  0  0  0  0  0  0  0  0  0  0
  1  2  1  0  0  0  0 
  2  3  2  0  0  0  0 
  2  4  1  0  0  0  0 
  4  5  1  0  0  0  0 
M  END
> <Name>
Acetic acid, methyl ester

> <Source>
DSSTox2DMolFile

> <Tox>
1.405

> <CAS>
79-20-9

$$$$

  CDK

  6  5  0  0  0  0  0  0  0  0999 V2000
    3.3250   -1.1509    0.0000 C   0  0  0  0  0  0  0  0  0  0  0  0
    1.9943   -1.1509    0.0000 C   0  0  0  0  0  0  0  0  0  0  0  0
    1.3307   -0.0000    0.0000 C   0  0  0  0  0  0  0  0  0  0  0  0
    1.3307   -2.3053    0.0000 C   0  0  0  0  0  0  0  0  0  0  0  0
    1.9943   -3.4563    0.0000 O   0  0  0  0  0  0  0  0  0  0  0  0
    0.0000   -2.3053    0.0000 O   0  0  0  0  0  0  0  0  0  0  0  0
  1  2  1  0  0  0  0 
  2  3  1  0  0  0  0 
  2  4  1  0  0  0  0 
  4  5  1  0  0  0  0 
  4  6  2  0  0  0  0 
M  END
> <Name>
Propanoic acid, 2-methyl-

> <Source>
DSSTox2DMolFile

> <Tox>
2.667

> <CAS>
79-31-2

$$$$

  CDK

 12 12  0  0  0  0  0  0  0  0999 V2000
    6.4728   -0.0000    0.0000 C   0  0  0  0  0  0  0  0  0  0  0  0
    5.3220   -0.6652    0.0000 C   0  0  0  0  0  0  0  0  0  0  0  0
    5.3220   -1.9957    0.0000 C   0  0  0  0  0  0  0  0  0  0  0  0
    5.3220   -3.3262    0.0000 C   0  0  0  0  0  0  0  0  0  0  0  0
    6.6525   -1.9957    0.0000 C   0  0  0  0  0  0  0  0  0  0  0  0
    3.9915   -1.9957    0.0000 C   0  0  0  0  0  0  0  0  0  0  0  0
    3.3262   -3.1466    0.0000 C   0  0  0  0  0  0  0  0  0  0  0  0
    3.3262   -0.8449    0.0000 C   0  0  0  0  0  0  0  0  0  0  0  0
    1.9957   -3.1466    0.0000 C   0  0  0  0  0  0  0  0  0  0  0  0
    1.9957   -0.8449    0.0000 C   0  0  0  0  0  0  0  0  0  0  0  0
    1.3305   -1.9957    0.0000 C   0  0  0  0  0  0  0  0  0  0  0  0
    0.0000   -1.9957    0.0000 O   0  0  0  0  0  0  0  0  0  0  0  0
  1  2  1  0  0  0  0 
  2  3  1  0  0  0  0 
  3  4  1  0  0  0  0 
  3  5  1  0  0  0  0 
  3  6  1  0  0  0  0 
  6  7  2  0  0  0  0 
  6  8  1  0  0  0  0 
  7  9  1  0  0  0  0 
 10  8  2  0  0  0  0 
  9 11  2  0  0  0  0 
 11 10  1  0  0  0  0 
 11 12  1  0  0  0  0 
M  END
> <Name>
Phenol, 4-(1,1-dimethylpropyl)-

> <Source>
DSSTox2DMolFile

> <Tox>
4.230

> <CAS>
80-46-6

$$$$

  CDK

  7  6  0  0  0  0  0  0  0  0999 V2000
    0.0000   -2.3052    0.0000 O   0  0  0  0  0  0  0  0  0  0  0  0
    1.3306   -2.3052    0.0000 C   0  0  0  0  0  0  0  0  0  0  0  0
    1.9941   -1.1508    0.0000 C   0  0  0  0  0  0  0  0  0  0  0  0
    1.9941   -3.4560    0.0000 O   0  0  0  0  0  0  0  0  0  0  0  0
    3.3247   -1.1508    0.0000 C   0  0  0  0  0  0  0  0  0  0  0  0
    1.3306   -0.0000    0.0000 C   0  0  0  0  0  0  0  0  0  0  0  0
    3.3247   -3.4560    0.0000 C   0  0  0  0  0  0  0  0  0  0  0  0
  1  2  2  0  0  0  0 
  2  3  1  0  0  0  0 
  2  4  1  0  0  0  0 
  3  5  2  0  0  0  0 
  3  6  1  0  0  0  0 
  4  7  1  0  0  0  0 
M  END
> <Name>
2-Propenoic acid, 2-methyl-, methyl ester

> <Source>
DSSTox2DMolFile

> <Tox>
1.780

> <CAS>
80-62-6

$$$$

  CDK

 11 11  0  0  0  0  0  0  0  0999 V2000
    0.6657   -2.3043    0.0000 N   0  0  0  0  0  0  0  0  0  0  0  0
    0.0000   -3.4588    0.0000 O   0  0  0  0  0  0  0  0  0  0  0  0
    0.0000   -1.1545    0.0000 O   0  0  0  0  0  0  0  0  0  0  0  0
    1.9971   -2.3043    0.0000 C   0  0  0  0  0  0  0  0  0  0  0  0
    2.6581   -1.1545    0.0000 C   0  0  0  0  0  0  0  0  0  0  0  0
    2.6581   -3.4588    0.0000 C   0  0  0  0  0  0  0  0  0  0  0  0
    1.9971   -0.0000    0.0000 C   0  0  0  0  0  0  0  0  0  0  0  0
    3.9895   -1.1545    0.0000 C   0  0  0  0  0  0  0  0  0  0  0  0
    3.9895   -3.4588    0.0000 C   0  0  0  0  0  0  0  0  0  0  0  0
    1.9971   -4.6086    0.0000 C   0  0  0  0  0  0  0  0  0  0  0  0
    4.6552   -2.3043    0.0000 C   0  0  0  0  0  0  0  0  0  0  0  0
  1  2  2  0  0  0  0 
  1  3  1  0  0  0  0 
  1  4  1  0  0  0  0 
  4  5  2  0  0  0  0 
  4  6  1  0  0  0  0 
  5  7  1  0  0  0  0 
  5  8  1  0  0  0  0 
  9  6  2  0  0  0  0 
  6 10  1  0  0  0  0 
  8 11  2  0  0  0  0 
 11  9  1  0  0  0  0 
M  CHG  1   1   1
M  CHG  1   3  -1
M  END
> <Name>
Benzene, 1,3-dimethyl-2-nitro-

> <Source>
DSSTox2DMolFile

> <Tox>
3.300

> <CAS>
81-20-9

$$$$

  CDK

 10 11  0  0  0  0  0  0  0  0999 V2000
   -0.7424    1.7866    0.0017 N   0  0  0  0  0  0  0  0  0  0  0  0
   -1.9339    1.0348    0.0039 C   0  0  0  0  0  0  0  0  0  0  0  0
    0.3513    0.9027   -0.0014 C   0  0  0  0  0  0  0  0  0  0  0  0
   -1.6122   -0.3098    0.0025 C   0  0  0  0  0  0  0  0  0  0  0  0
   -0.1759   -0.4176    0.0009 C   0  0  0  0  0  0  0  0  0  0  0  0
    1.7337    1.1458   -0.0038 C   0  0  0  0  0  0  0  0  0  0  0  0
   -2.5552   -1.4379   -0.0060 C   0  0  0  0  0  0  0  0  0  0  0  0
    0.7000   -1.5116    0.0045 C   0  0  0  0  0  0  0  0  0  0  0  0
    2.5676    0.0482   -0.0028 C   0  0  0  0  0  0  0  0  0  0  0  0
    2.0570   -1.2660    0.0022 C   0  0  0  0  0  0  0  0  0  0  0  0
  1  2  1  0  0  0  0 
  1  3  1  0  0  0  0 
  2  4  2  0  0  0  0 
  5  3  1  0  0  0  0 
  6  3  2  0  0  0  0 
  4  5  1  0  0  0  0 
  4  7  1  0  0  0  0 
  5  8  2  0  0  0  0 
  9  6  1  0  0  0  0 
  8 10  1  0  0  0  0 
 10  9  2  0  0  0  0 
M  END
> <Name>
1H-Indole, 3-methyl-

> <Source>
DougDB3DMolFile

> <Tox>
3.370

> <CAS>
83-34-1

$$$$

  CDK

 11 11  0  0  0  0  0  0  0  0999 V2000
   -0.1898    0.4714   -0.0297 C   0  0  0  0  0  0  0  0  0  0  0  0
   -1.4333   -0.1726   -0.0003 C   0  0  0  0  0  0  0  0  0  0  0  0
    0.9622   -0.3290    0.0232 C   0  0  0  0  0  0  0  0  0  0  0  0
   -0.1021    1.9525   -0.1187 C   0  0  0  0  0  0  0  0  0  0  0  0
   -1.5309   -1.5604    0.0776 C   0  0  0  0  0  0  0  0  0  0  0  0
   -2.8732    0.7076   -0.0572 Cl  0  0  0  0  0  0  0  0  0  0  0  0
    0.8680   -1.7213    0.0928 C   0  0  0  0  0  0  0  0  0  0  0  0
    2.3393    0.2761    0.0050 N   0  0  0  0  0  0  0  0  0  0  0  0
   -0.3784   -2.3339    0.1227 C   0  0  0  0  0  0  0  0  0  0  0  0
    2.7076    0.9424    0.9497 O   0  0  0  0  0  0  0  0  0  0  0  0
    3.0558    0.0670   -0.9514 O   0  0  0  0  0  0  0  0  0  0  0  0
  1  2  1  0  0  0  0 
  1  3  2  0  0  0  0 
  1  4  1  0  0  0  0 
  2  5  2  0  0  0  0 
  2  6  1  0  0  0  0 
  3  7  1  0  0  0  0 
  3  8  1  0  0  0  0 
  9  5  1  0  0  0  0 
  9  7  2  0  0  0  0 
  8 10  2  0  0  0  0 
  8 11  1  0  0  0  0 
M  CHG  1   8   1
M  CHG  1  11  -1
M  END
> <Name>
Benzene, 1-chloro-2-methyl-3-nitro-

> <Source>
DougDB3DMolFile

> <Tox>
3.680

> <CAS>
83-42-1

$$$$

  CDK

 16 16  0  0  0  0  0  0  0  0999 V2000
    6.6518   -5.7598    0.0000 C   0  0  0  0  0  0  0  0  0  0  0  0
    5.9880   -4.6120    0.0000 C   0  0  0  0  0  0  0  0  0  0  0  0
    4.6604   -4.6120    0.0000 O   0  0  0  0  0  0  0  0  0  0  0  0
    3.9897   -5.7598    0.0000 C   0  0  0  0  0  0  0  0  0  0  0  0
    4.6604   -6.9146    0.0000 O   0  0  0  0  0  0  0  0  0  0  0  0
    2.6621   -5.7598    0.0000 C   0  0  0  0  0  0  0  0  0  0  0  0
    1.9983   -6.9146    0.0000 C   0  0  0  0  0  0  0  0  0  0  0  0
    1.9983   -4.6120    0.0000 C   0  0  0  0  0  0  0  0  0  0  0  0
    0.6638   -6.9146    0.0000 C   0  0  0  0  0  0  0  0  0  0  0  0
    0.6638   -4.6120    0.0000 C   0  0  0  0  0  0  0  0  0  0  0  0
    2.6621   -3.4573    0.0000 C   0  0  0  0  0  0  0  0  0  0  0  0
    0.0000   -5.7598    0.0000 C   0  0  0  0  0  0  0  0  0  0  0  0
    3.9897   -3.4573    0.0000 O   0  0  0  0  0  0  0  0  0  0  0  0
    1.9983   -2.3025    0.0000 O   0  0  0  0  0  0  0  0  0  0  0  0
    2.6621   -1.1547    0.0000 C   0  0  0  0  0  0  0  0  0  0  0  0
    1.9983   -0.0000    0.0000 C   0  0  0  0  0  0  0  0  0  0  0  0
  1  2  1  0  0  0  0 
  2  3  1  0  0  0  0 
  3  4  1  0  0  0  0 
  4  5  2  0  0  0  0 
  4  6  1  0  0  0  0 
  6  7  2  0  0  0  0 
  6  8  1  0  0  0  0 
  7  9  1  0  0  0  0 
 10  8  2  0  0  0  0 
  8 11  1  0  0  0  0 
  9 12  2  0  0  0  0 
 12 10  1  0  0  0  0 
 11 13  2  0  0  0  0 
 11 14  1  0  0  0  0 
 14 15  1  0  0  0  0 
 15 16  1  0  0  0  0 
M  END
> <Name>
1,2-Benzenedicarboxylic acid, diethyl ester

> <Source>
DSSTox2DMolFile

> <Tox>
3.230

> <CAS>
84-66-2

$$$$

  CDK

 20 20  0  0  0  0  0  0  0  0999 V2000
    5.3176   -5.7600    0.0000 C   0  0  0  0  0  0  0  0  0  0  0  0
    5.9904   -4.6080    0.0000 C   0  0  0  0  0  0  0  0  0  0  0  0
    5.9904   -6.9120    0.0000 C   0  0  0  0  0  0  0  0  0  0  0  0
    3.9905   -5.7600    0.0000 C   0  0  0  0  0  0  0  0  0  0  0  0
    5.3176   -3.4560    0.0000 C   0  0  0  0  0  0  0  0  0  0  0  0
    7.3175   -4.6080    0.0000 C   0  0  0  0  0  0  0  0  0  0  0  0
    7.3175   -6.9120    0.0000 C   0  0  0  0  0  0  0  0  0  0  0  0
    3.3270   -6.9120    0.0000 O   0  0  0  0  0  0  0  0  0  0  0  0
    3.3270   -4.6080    0.0000 O   0  0  0  0  0  0  0  0  0  0  0  0
    3.9905   -3.4560    0.0000 O   0  0  0  0  0  0  0  0  0  0  0  0
    5.9904   -2.3040    0.0000 O   0  0  0  0  0  0  0  0  0  0  0  0
    7.9810   -5.7600    0.0000 C   0  0  0  0  0  0  0  0  0  0  0  0
    1.9999   -6.9120    0.0000 C   0  0  0  0  0  0  0  0  0  0  0  0
    3.3270   -2.3040    0.0000 C   0  0  0  0  0  0  0  0  0  0  0  0
    1.3271   -8.0640    0.0000 C   0  0  0  0  0  0  0  0  0  0  0  0
    3.9905   -1.1520    0.0000 C   0  0  0  0  0  0  0  0  0  0  0  0
    1.9999   -9.2159    0.0000 C   0  0  0  0  0  0  0  0  0  0  0  0
    0.0000   -8.0640    0.0000 C   0  0  0  0  0  0  0  0  0  0  0  0
    3.3270   -0.0000    0.0000 C   0  0  0  0  0  0  0  0  0  0  0  0
    5.3176   -1.1520    0.0000 C   0  0  0  0  0  0  0  0  0  0  0  0
  1  2  2  0  0  0  0 
  1  3  1  0  0  0  0 
  1  4  1  0  0  0  0 
  2  5  1  0  0  0  0 
  2  6  1  0  0  0  0 
  7  3  2  0  0  0  0 
  4  8  1  0  0  0  0 
  4  9  2  0  0  0  0 
  5 10  1  0  0  0  0 
  5 11  2  0  0  0  0 
  6 12  2  0  0  0  0 
 12  7  1  0  0  0  0 
  8 13  1  0  0  0  0 
 10 14  1  0  0  0  0 
 13 15  1  0  0  0  0 
 14 16  1  0  0  0  0 
 15 17  1  0  0  0  0 
 15 18  1  0  0  0  0 
 16 19  1  0  0  0  0 
 16 20  1  0  0  0  0 
M  END
> <Name>
1,2-Benzenedicarboxylic acid, bis(2-methylpropyl) ester

> <Source>
DSSTox2DMolFile

> <Tox>
4.440

> <CAS>
84-69-5

$$$$

  CDK

 15 16  0  0  0  0  0  0  0  0999 V2000
    1.1490   -1.9928    0.0000 O   0  0  0  0  0  0  0  0  0  0  0  0
    2.3040   -1.3285    0.0000 N   0  0  0  0  0  0  0  0  0  0  0  0
    2.3040   -0.0000    0.0000 O   0  0  0  0  0  0  0  0  0  0  0  0
    3.4530   -1.9928    0.0000 C   0  0  0  0  0  0  0  0  0  0  0  0
    4.6080   -1.3285    0.0000 C   0  0  0  0  0  0  0  0  0  0  0  0
    3.4530   -3.3274    0.0000 C   0  0  0  0  0  0  0  0  0  0  0  0
    5.7570   -1.9928    0.0000 C   0  0  0  0  0  0  0  0  0  0  0  0
    4.6080   -3.9916    0.0000 C   0  0  0  0  0  0  0  0  0  0  0  0
    2.3040   -3.9916    0.0000 C   0  0  0  0  0  0  0  0  0  0  0  0
    5.7570   -3.3274    0.0000 C   0  0  0  0  0  0  0  0  0  0  0  0
    2.3040   -5.3202    0.0000 C   0  0  0  0  0  0  0  0  0  0  0  0
    1.1490   -3.3274    0.0000 C   0  0  0  0  0  0  0  0  0  0  0  0
    1.1490   -5.9845    0.0000 C   0  0  0  0  0  0  0  0  0  0  0  0
    0.0000   -3.9916    0.0000 C   0  0  0  0  0  0  0  0  0  0  0  0
    0.0000   -5.3202    0.0000 C   0  0  0  0  0  0  0  0  0  0  0  0
  1  2  2  0  0  0  0 
  2  3  1  0  0  0  0 
  2  4  1  0  0  0  0 
  4  5  2  0  0  0  0 
  4  6  1  0  0  0  0 
  5  7  1  0  0  0  0 
  8  6  2  0  0  0  0 
  6  9  1  0  0  0  0 
  7 10  2  0  0  0  0 
 10  8  1  0  0  0  0 
  9 11  2  0  0  0  0 
  9 12  1  0  0  0  0 
 11 13  1  0  0  0  0 
 14 12  2  0  0  0  0 
 13 15  2  0  0  0  0 
 15 14  1  0  0  0  0 
M  CHG  1   2   1
M  CHG  1   3  -1
M  END
> <Name>
1,1'-Biphenyl, 2-nitro- (9CI)

> <Source>
DSSTox2DMolFile

> <Tox>
4.300

> <CAS>
86-00-0

$$$$

  CDK

 12 13  0  0  0  0  0  0  0  0999 V2000
    0.9914    0.8923    0.0000 C   0  0  0  0  0  0  0  0  0  0  0  0
    0.0000    0.8923    0.0000 N   0  0  0  0  0  0  0  0  0  0  0  0
    2.0324    0.8923    0.0000 C   0  0  0  0  0  0  0  0  0  0  0  0
    2.5281    1.7349    0.0000 C   0  0  0  0  0  0  0  0  0  0  0  0
    2.5281    0.0000    0.0000 C   0  0  0  0  0  0  0  0  0  0  0  0
    3.5194    1.7349    0.0000 C   0  0  0  0  0  0  0  0  0  0  0  0
    2.0324    2.5776    0.0000 C   0  0  0  0  0  0  0  0  0  0  0  0
    3.5194    0.0000    0.0000 C   0  0  0  0  0  0  0  0  0  0  0  0
    4.0151    0.8923    0.0000 C   0  0  0  0  0  0  0  0  0  0  0  0
    4.0151    2.5776    0.0000 C   0  0  0  0  0  0  0  0  0  0  0  0
    2.5281    3.4699    0.0000 C   0  0  0  0  0  0  0  0  0  0  0  0
    3.5194    3.4699    0.0000 C   0  0  0  0  0  0  0  0  0  0  0  0
  1  2  3  0  0  0  0 
  1  3  1  0  0  0  0 
  4  3  2  0  0  0  0 
  3  5  1  0  0  0  0 
  4  6  1  0  0  0  0 
  7  4  1  0  0  0  0 
  5  8  2  0  0  0  0 
  9  6  2  0  0  0  0 
  6 10  1  0  0  0  0 
 11  7  2  0  0  0  0 
  8  9  1  0  0  0  0 
 10 12  2  0  0  0  0 
 12 11  1  0  0  0  0 
M  END
> <Name>
naphthalene-1-carbonitrile

> <Source>
NIST2DMolFile

> <Tox>
3.690

> <CAS>
86-53-3

$$$$

  CDK

 13 14  0  0  0  0  0  0  0  0999 V2000
    1.1516   -3.9902    0.0000 O   0  0  0  0  0  0  0  0  0  0  0  0
    1.1516   -2.6601    0.0000 N   0  0  0  0  0  0  0  0  0  0  0  0
    2.3031   -1.9922    0.0000 C   0  0  0  0  0  0  0  0  0  0  0  0
    0.0000   -1.9922    0.0000 O   0  0  0  0  0  0  0  0  0  0  0  0
    3.4547   -2.6601    0.0000 C   0  0  0  0  0  0  0  0  0  0  0  0
    2.3031   -0.6622    0.0000 C   0  0  0  0  0  0  0  0  0  0  0  0
    4.6063   -1.9922    0.0000 C   0  0  0  0  0  0  0  0  0  0  0  0
    3.4547   -3.9902    0.0000 C   0  0  0  0  0  0  0  0  0  0  0  0
    3.4547   -0.0000    0.0000 C   0  0  0  0  0  0  0  0  0  0  0  0
    4.6063   -0.6622    0.0000 C   0  0  0  0  0  0  0  0  0  0  0  0
    5.7578   -2.6601    0.0000 C   0  0  0  0  0  0  0  0  0  0  0  0
    4.6063   -4.6523    0.0000 C   0  0  0  0  0  0  0  0  0  0  0  0
    5.7578   -3.9902    0.0000 C   0  0  0  0  0  0  0  0  0  0  0  0
  1  2  2  0  0  0  0 
  2  3  1  0  0  0  0 
  2  4  1  0  0  0  0 
  3  5  2  0  0  0  0 
  3  6  1  0  0  0  0 
  5  7  1  0  0  0  0 
  5  8  1  0  0  0  0 
  9  6  2  0  0  0  0 
  7 10  2  0  0  0  0 
  7 11  1  0  0  0  0 
 12  8  2  0  0  0  0 
 10  9  1  0  0  0  0 
 11 13  2  0  0  0  0 
 13 12  1  0  0  0  0 
M  CHG  1   2   1
M  CHG  1   4  -1
M  END
> <Name>
Naphthalene, 1-nitro-

> <Source>
DSSTox2DMolFile

> <Tox>
4.000

> <CAS>
86-57-7

$$$$

  CDK

 13 15  0  0  0  0  0  0  0  0999 V2000
    3.7329   -2.1413    0.0000 C   0  0  0  0  0  0  0  0  0  0  0  0
    2.4289   -1.8664    0.0000 C   0  0  0  0  0  0  0  0  0  0  0  0
    4.3976   -0.9907    0.0000 C   0  0  0  0  0  0  0  0  0  0  0  0
    4.3976   -3.2918    0.0000 C   0  0  0  0  0  0  0  0  0  0  0  0
    2.2883   -0.5433    0.0000 C   0  0  0  0  0  0  0  0  0  0  0  0
    1.3551   -2.6462    0.0000 C   0  0  0  0  0  0  0  0  0  0  0  0
    3.5091   -0.0000    0.0000 N   0  0  0  0  0  0  0  0  0  0  0  0
    5.7271   -0.9907    0.0000 C   0  0  0  0  0  0  0  0  0  0  0  0
    5.7271   -3.2918    0.0000 C   0  0  0  0  0  0  0  0  0  0  0  0
    1.0738   -0.0000    0.0000 C   0  0  0  0  0  0  0  0  0  0  0  0
    0.1406   -2.1029    0.0000 C   0  0  0  0  0  0  0  0  0  0  0  0
    6.3919   -2.1413    0.0000 C   0  0  0  0  0  0  0  0  0  0  0  0
    0.0000   -0.7798    0.0000 C   0  0  0  0  0  0  0  0  0  0  0  0
  1  2  1  0  0  0  0 
  1  3  1  0  0  0  0 
  1  4  2  0  0  0  0 
  2  5  2  0  0  0  0 
  2  6  1  0  0  0  0 
  7  3  1  0  0  0  0 
  3  8  2  0  0  0  0 
  9  4  1  0  0  0  0 
  5 10  1  0  0  0  0 
  5  7  1  0  0  0  0 
 11  6  2  0  0  0  0 
  8 12  1  0  0  0  0 
 12  9  2  0  0  0  0 
 10 13  2  0  0  0  0 
 13 11  1  0  0  0  0 
M  END
> <Name>
9H-Carbazole

> <Source>
DSSTox2DMolFile

> <Tox>
3.910

> <CAS>
86-74-8

$$$$

  CDK

 13 13  0  0  0  0  0  0  0  0999 V2000
    1.7668    0.5048    0.0000 C   0  0  0  0  0  0  0  0  0  0  0  0
    1.7668    1.5144    0.0000 C   0  0  0  0  0  0  0  0  0  0  0  0
    0.9086    0.0000    0.0000 C   0  0  0  0  0  0  0  0  0  0  0  0
    0.9086    1.9687    0.0000 C   0  0  0  0  0  0  0  0  0  0  0  0
    2.5745    1.9687    0.0000 O   0  0  0  0  0  0  0  0  0  0  0  0
    0.0000    0.5048    0.0000 C   0  0  0  0  0  0  0  0  0  0  0  0
    0.0000    1.5144    0.0000 C   0  0  0  0  0  0  0  0  0  0  0  0
    0.9086    2.9783    0.0000 C   0  0  0  0  0  0  0  0  0  0  0  0
    1.7668    3.4831    0.0000 O   0  0  0  0  0  0  0  0  0  0  0  0
    0.0000    3.4831    0.0000 O   0  0  0  0  0  0  0  0  0  0  0  0
    2.5745    2.9783    0.0000 C   0  0  0  0  0  0  0  0  0  0  0  0
    3.4326    3.4831    0.0000 C   0  0  0  0  0  0  0  0  0  0  0  0
    4.3413    2.9783    0.0000 O   0  0  0  0  0  0  0  0  0  0  0  0
  2  1  2  0  0  0  0 
  1  3  1  0  0  0  0 
  4  2  1  0  0  0  0 
  2  5  1  0  0  0  0 
  3  6  2  0  0  0  0 
  7  4  2  0  0  0  0 
  4  8  1  0  0  0  0 
  6  7  1  0  0  0  0 
  8  9  1  0  0  0  0 
  8 10  2  0  0  0  0 
  9 11  1  0  0  0  0 
 11 12  1  0  0  0  0 
 12 13  1  0  0  0  0 
M  END
> <Name>
2-hydroxyethyl 2-hydroxybenzoate

> <Source>
NIST2DMolFile

> <Tox>
2.920

> <CAS>
87-28-5

$$$$

  CDK

  9  9  0  0  0  0  0  0  0  0999 V2000
    1.3315   -4.6073    0.0000 N   0  0  0  0  0  0  0  0  0  0  0  0
    1.9950   -3.4555    0.0000 C   0  0  0  0  0  0  0  0  0  0  0  0
    1.3315   -2.3037    0.0000 C   0  0  0  0  0  0  0  0  0  0  0  0
    3.3265   -3.4555    0.0000 C   0  0  0  0  0  0  0  0  0  0  0  0
    1.9950   -1.1518    0.0000 C   0  0  0  0  0  0  0  0  0  0  0  0
    0.0000   -2.3037    0.0000 C   0  0  0  0  0  0  0  0  0  0  0  0
    3.9899   -2.3037    0.0000 C   0  0  0  0  0  0  0  0  0  0  0  0
    3.3265   -1.1518    0.0000 C   0  0  0  0  0  0  0  0  0  0  0  0
    1.3315   -0.0000    0.0000 C   0  0  0  0  0  0  0  0  0  0  0  0
  1  2  1  0  0  0  0 
  2  3  2  0  0  0  0 
  2  4  1  0  0  0  0 
  3  5  1  0  0  0  0 
  3  6  1  0  0  0  0 
  7  4  2  0  0  0  0 
  5  8  2  0  0  0  0 
  5  9  1  0  0  0  0 
  8  7  1  0  0  0  0 
M  END
> <Name>
Benzenamine, 2,3-dimethyl-

> <Source>
DSSTox2DMolFile

> <Tox>
2.570

> <CAS>
87-59-2

$$$$

  CDK

  9  9  0  0  0  0  0  0  0  0999 V2000
    0.0000   -2.3037    0.0000 N   0  0  0  0  0  0  0  0  0  0  0  0
    1.3315   -2.3037    0.0000 C   0  0  0  0  0  0  0  0  0  0  0  0
    1.9950   -1.1518    0.0000 C   0  0  0  0  0  0  0  0  0  0  0  0
    1.9950   -3.4555    0.0000 C   0  0  0  0  0  0  0  0  0  0  0  0
    3.3265   -1.1518    0.0000 C   0  0  0  0  0  0  0  0  0  0  0  0
    1.3315   -0.0000    0.0000 C   0  0  0  0  0  0  0  0  0  0  0  0
    3.3265   -3.4555    0.0000 C   0  0  0  0  0  0  0  0  0  0  0  0
    1.3315   -4.6073    0.0000 C   0  0  0  0  0  0  0  0  0  0  0  0
    3.9899   -2.3037    0.0000 C   0  0  0  0  0  0  0  0  0  0  0  0
  1  2  1  0  0  0  0 
  2  3  2  0  0  0  0 
  2  4  1  0  0  0  0 
  3  5  1  0  0  0  0 
  3  6  1  0  0  0  0 
  7  4  2  0  0  0  0 
  4  8  1  0  0  0  0 
  5  9  2  0  0  0  0 
  9  7  1  0  0  0  0 
M  END
> <Name>
Benzenamine, 2,6-dimethyl-

> <Source>
DSSTox2DMolFile

> <Tox>
2.570

> <CAS>
87-62-7

$$$$

  CDK

  9  9  0  0  0  0  0  0  0  0999 V2000
    0.0000   -2.3037    0.0000 O   0  0  0  0  0  0  0  0  0  0  0  0
    1.3315   -2.3037    0.0000 C   0  0  0  0  0  0  0  0  0  0  0  0
    1.9950   -1.1518    0.0000 C   0  0  0  0  0  0  0  0  0  0  0  0
    1.9950   -3.4555    0.0000 C   0  0  0  0  0  0  0  0  0  0  0  0
    1.3315   -0.0000    0.0000 Cl  0  0  0  0  0  0  0  0  0  0  0  0
    3.3265   -1.1518    0.0000 C   0  0  0  0  0  0  0  0  0  0  0  0
    3.3265   -3.4555    0.0000 C   0  0  0  0  0  0  0  0  0  0  0  0
    1.3315   -4.6073    0.0000 Cl  0  0  0  0  0  0  0  0  0  0  0  0
    3.9899   -2.3037    0.0000 C   0  0  0  0  0  0  0  0  0  0  0  0
  1  2  1  0  0  0  0 
  2  3  2  0  0  0  0 
  2  4  1  0  0  0  0 
  3  5  1  0  0  0  0 
  3  6  1  0  0  0  0 
  7  4  2  0  0  0  0 
  4  8  1  0  0  0  0 
  6  9  2  0  0  0  0 
  9  7  1  0  0  0  0 
M  END
> <Name>
Phenol, 2,6-dichloro-

> <Source>
DSSTox2DMolFile

> <Tox>
3.730

> <CAS>
87-65-0

$$$$

  CDK

  9  9  0  0  0  0  0  0  0  0999 V2000
    0.0000   -2.3037    0.0000 O   0  0  0  0  0  0  0  0  0  0  0  0
    1.3315   -2.3037    0.0000 C   0  0  0  0  0  0  0  0  0  0  0  0
    1.9950   -1.1518    0.0000 C   0  0  0  0  0  0  0  0  0  0  0  0
    1.9950   -3.4555    0.0000 C   0  0  0  0  0  0  0  0  0  0  0  0
    1.3315   -0.0000    0.0000 O   0  0  0  0  0  0  0  0  0  0  0  0
    3.3265   -1.1518    0.0000 C   0  0  0  0  0  0  0  0  0  0  0  0
    3.3265   -3.4555    0.0000 C   0  0  0  0  0  0  0  0  0  0  0  0
    1.3315   -4.6073    0.0000 O   0  0  0  0  0  0  0  0  0  0  0  0
    3.9899   -2.3037    0.0000 C   0  0  0  0  0  0  0  0  0  0  0  0
  1  2  1  0  0  0  0 
  2  3  2  0  0  0  0 
  2  4  1  0  0  0  0 
  3  5  1  0  0  0  0 
  3  6  1  0  0  0  0 
  7  4  2  0  0  0  0 
  4  8  1  0  0  0  0 
  6  9  2  0  0  0  0 
  9  7  1  0  0  0  0 
M  END
> <Name>
1,2,3-Benzenetriol

> <Source>
DSSTox2DMolFile

> <Tox>
3.850

> <CAS>
87-66-1

$$$$

  CDK

 12 12  0  0  0  0  0  0  0  0999 V2000
    0.0000   -2.3022    0.0000 O   0  0  0  0  0  0  0  0  0  0  0  0
    1.3292   -2.3022    0.0000 C   0  0  0  0  0  0  0  0  0  0  0  0
    2.0045   -1.1485    0.0000 C   0  0  0  0  0  0  0  0  0  0  0  0
    2.0045   -3.4560    0.0000 C   0  0  0  0  0  0  0  0  0  0  0  0
    3.3337   -1.1485    0.0000 C   0  0  0  0  0  0  0  0  0  0  0  0
    1.3292   -0.0000    0.0000 Cl  0  0  0  0  0  0  0  0  0  0  0  0
    3.3337   -3.4560    0.0000 C   0  0  0  0  0  0  0  0  0  0  0  0
    1.3292   -4.6098    0.0000 Cl  0  0  0  0  0  0  0  0  0  0  0  0
    3.9877   -2.3022    0.0000 C   0  0  0  0  0  0  0  0  0  0  0  0
    3.9877   -0.0000    0.0000 Cl  0  0  0  0  0  0  0  0  0  0  0  0
    3.9877   -4.6098    0.0000 Cl  0  0  0  0  0  0  0  0  0  0  0  0
    5.3169   -2.3022    0.0000 Cl  0  0  0  0  0  0  0  0  0  0  0  0
  1  2  1  0  0  0  0 
  2  3  2  0  0  0  0 
  2  4  1  0  0  0  0 
  3  5  1  0  0  0  0 
  3  6  1  0  0  0  0 
  7  4  2  0  0  0  0 
  4  8  1  0  0  0  0 
  5  9  2  0  0  0  0 
  5 10  1  0  0  0  0 
  9  7  1  0  0  0  0 
  7 11  1  0  0  0  0 
  9 12  1  0  0  0  0 
M  END
> <Name>
Phenol, pentachloro-

> <Source>
DSSTox2DMolFile

> <Tox>
5.070

> <CAS>
87-86-5

$$$$

  CDK

 12 12  0  0  0  0  0  0  0  0999 V2000
    1.5210    2.5858    0.0000 C   0  0  0  0  0  0  0  0  0  0  0  0
    1.0140    1.7239    0.0000 C   0  0  0  0  0  0  0  0  0  0  0  0
    2.4844    2.5858    0.0000 C   0  0  0  0  0  0  0  0  0  0  0  0
    1.0140    3.4984    0.0000 Cl  0  0  0  0  0  0  0  0  0  0  0  0
    1.5210    0.9126    0.0000 C   0  0  0  0  0  0  0  0  0  0  0  0
    0.0000    1.7239    0.0000 O   0  0  0  0  0  0  0  0  0  0  0  0
    2.9914    3.4984    0.0000 Cl  0  0  0  0  0  0  0  0  0  0  0  0
    2.9914    1.7239    0.0000 C   0  0  0  0  0  0  0  0  0  0  0  0
    2.4844    0.9126    0.0000 C   0  0  0  0  0  0  0  0  0  0  0  0
    1.0140    0.0507    0.0000 Cl  0  0  0  0  0  0  0  0  0  0  0  0
    4.0054    1.7239    0.0000 O   0  0  0  0  0  0  0  0  0  0  0  0
    2.9914    0.0000    0.0000 Cl  0  0  0  0  0  0  0  0  0  0  0  0
  1  2  2  0  0  0  0 
  3  1  1  0  0  0  0 
  1  4  1  0  0  0  0 
  2  5  1  0  0  0  0 
  2  6  1  0  0  0  0 
  3  7  1  0  0  0  0 
  8  3  2  0  0  0  0 
  5  9  2  0  0  0  0 
  5 10  1  0  0  0  0 
  9  8  1  0  0  0  0 
  8 11  1  0  0  0  0 
  9 12  1  0  0  0  0 
M  END
> <Name>
1,4-Benzenediol, 2,3,5,6-tetrachloro-

> <Source>
NIST2DMolFile

> <Tox>
5.110

> <CAS>
87-87-6

$$$$

  CDK

 10 10  0  0  0  0  0  0  0  0999 V2000
   -2.4977    0.0016   -0.0051 N   0  0  0  0  0  0  0  0  0  0  0  0
   -1.0956    0.0008   -0.0013 C   0  0  0  0  0  0  0  0  0  0  0  0
   -0.3843    1.2219    0.0013 C   0  0  0  0  0  0  0  0  0  0  0  0
   -0.3865   -1.2213    0.0013 C   0  0  0  0  0  0  0  0  0  0  0  0
    1.0074    1.2016    0.0050 C   0  0  0  0  0  0  0  0  0  0  0  0
   -1.0802    2.5372    0.0006 C   0  0  0  0  0  0  0  0  0  0  0  0
    1.0054   -1.2036    0.0049 C   0  0  0  0  0  0  0  0  0  0  0  0
   -1.0843   -2.5357    0.0006 C   0  0  0  0  0  0  0  0  0  0  0  0
    1.7100   -0.0018    0.0053 C   0  0  0  0  0  0  0  0  0  0  0  0
    3.1956   -0.0014   -0.0078 C   0  0  0  0  0  0  0  0  0  0  0  0
  1  2  1  0  0  0  0 
  2  3  1  0  0  0  0 
  2  4  2  0  0  0  0 
  3  5  2  0  0  0  0 
  3  6  1  0  0  0  0 
  7  4  1  0  0  0  0 
  4  8  1  0  0  0  0 
  5  9  1  0  0  0  0 
  9  7  2  0  0  0  0 
  9 10  1  0  0  0  0 
M  END
> <Name>
Benzenamine, 2,4,6-trimethyl-

> <Source>
DougDB3DMolFile

> <Tox>
2.950

> <CAS>
88-05-1

$$$$

  CDK

 10 10  0  0  0  0  0  0  0  0999 V2000
    5.3182   -2.3028    0.0000 O   0  0  0  0  0  0  0  0  0  0  0  0
    3.9887   -2.3028    0.0000 C   0  0  0  0  0  0  0  0  0  0  0  0
    3.3239   -3.4568    0.0000 C   0  0  0  0  0  0  0  0  0  0  0  0
    3.3239   -1.1487    0.0000 C   0  0  0  0  0  0  0  0  0  0  0  0
    1.9943   -3.4568    0.0000 C   0  0  0  0  0  0  0  0  0  0  0  0
    3.9887   -4.6056    0.0000 Cl  0  0  0  0  0  0  0  0  0  0  0  0
    1.9943   -1.1487    0.0000 C   0  0  0  0  0  0  0  0  0  0  0  0
    3.9887   -0.0000    0.0000 Cl  0  0  0  0  0  0  0  0  0  0  0  0
    1.3296   -2.3028    0.0000 C   0  0  0  0  0  0  0  0  0  0  0  0
    0.0000   -2.3028    0.0000 Cl  0  0  0  0  0  0  0  0  0  0  0  0
  1  2  1  0  0  0  0 
  2  3  2  0  0  0  0 
  2  4  1  0  0  0  0 
  3  5  1  0  0  0  0 
  3  6  1  0  0  0  0 
  7  4  2  0  0  0  0 
  4  8  1  0  0  0  0 
  5  9  2  0  0  0  0 
  9  7  1  0  0  0  0 
  9 10  1  0  0  0  0 
M  END
> <Name>
Phenol, 2,4,6-trichloro-

> <Source>
DSSTox2DMolFile

> <Tox>
4.410

> <CAS>
88-06-2

$$$$

  CDK

  8  8  0  0  0  0  0  0  0  0999 V2000
    2.3787    0.0000    0.0000 C   0  0  0  0  0  0  0  0  0  0  0  0
    2.3787    0.8920    0.0000 C   0  0  0  0  0  0  0  0  0  0  0  0
    3.1716    1.3380    0.0000 O   0  0  0  0  0  0  0  0  0  0  0  0
    1.5858    1.3380    0.0000 C   0  0  0  0  0  0  0  0  0  0  0  0
    0.7929    0.8920    0.0000 S   0  0  0  0  0  0  0  0  0  0  0  0
    1.5858    2.2796    0.0000 C   0  0  0  0  0  0  0  0  0  0  0  0
    0.0000    1.3380    0.0000 C   0  0  0  0  0  0  0  0  0  0  0  0
    0.0000    2.2796    0.0000 C   0  0  0  0  0  0  0  0  0  0  0  0
  1  2  1  0  0  0  0 
  2  3  2  0  0  0  0 
  2  4  1  0  0  0  0 
  4  5  1  0  0  0  0 
  6  4  2  0  0  0  0 
  5  7  1  0  0  0  0 
  8  6  1  0  0  0  0 
  7  8  2  0  0  0  0 
M  END
> <Name>
1-thiophen-2-ylethanone

> <Source>
NIST2DMolFile

> <Tox>
2.410

> <CAS>
88-15-3

$$$$

  CDK

 11 11  0  0  0  0  0  0  0  0999 V2000
    1.1483   -1.3412    0.0000 C   0  0  0  0  0  0  0  0  0  0  0  0
    1.1483   -0.0000    0.0000 O   0  0  0  0  0  0  0  0  0  0  0  0
    2.2966   -1.9935    0.0000 C   0  0  0  0  0  0  0  0  0  0  0  0
    0.0000   -1.9935    0.0000 C   0  0  0  0  0  0  0  0  0  0  0  0
    2.2966   -3.3163    0.0000 C   0  0  0  0  0  0  0  0  0  0  0  0
    3.4449   -1.3412    0.0000 C   0  0  0  0  0  0  0  0  0  0  0  0
    0.0000   -3.3163    0.0000 C   0  0  0  0  0  0  0  0  0  0  0  0
    1.1483   -3.9869    0.0000 C   0  0  0  0  0  0  0  0  0  0  0  0
    3.1280   -0.0965    0.0000 C   0  0  0  0  0  0  0  0  0  0  0  0
    4.4003   -2.3747    0.0000 C   0  0  0  0  0  0  0  0  0  0  0  0
    4.5932   -0.6706    0.0000 C   0  0  0  0  0  0  0  0  0  0  0  0
  1  2  1  0  0  0  0 
  1  3  2  0  0  0  0 
  1  4  1  0  0  0  0 
  3  5  1  0  0  0  0 
  3  6  1  0  0  0  0 
  4  7  2  0  0  0  0 
  5  8  2  0  0  0  0 
  6  9  1  0  0  0  0 
  6 10  1  0  0  0  0 
  6 11  1  0  0  0  0 
  7  8  1  0  0  0  0 
M  END
> <Name>
Phenol, 2-(1,1-dimethylethyl)-

> <Source>
DSSTox2DMolFile

> <Tox>
4.290

> <CAS>
88-18-6

$$$$

  CDK

 10 10  0  0  0  0  0  0  0  0999 V2000
    0.0497    0.8449    0.0000 O   0  0  0  0  0  0  0  0  0  0  0  0
    0.4970    1.7396    0.0000 C   0  0  0  0  0  0  0  0  0  0  0  0
    0.0000    2.5845    0.0000 O   0  0  0  0  0  0  0  0  0  0  0  0
    1.5408    1.7396    0.0000 C   0  0  0  0  0  0  0  0  0  0  0  0
    2.0378    0.8449    0.0000 C   0  0  0  0  0  0  0  0  0  0  0  0
    2.0378    2.5845    0.0000 C   0  0  0  0  0  0  0  0  0  0  0  0
    1.5408    0.0000    0.0000 Br  0  0  0  0  0  0  0  0  0  0  0  0
    3.0318    0.8449    0.0000 C   0  0  0  0  0  0  0  0  0  0  0  0
    3.0318    2.5845    0.0000 C   0  0  0  0  0  0  0  0  0  0  0  0
    3.5288    1.7396    0.0000 C   0  0  0  0  0  0  0  0  0  0  0  0
  1  2  1  0  0  0  0 
  2  3  2  0  0  0  0 
  2  4  1  0  0  0  0 
  4  5  2  0  0  0  0 
  6  4  1  0  0  0  0 
  5  7  1  0  0  0  0 
  5  8  1  0  0  0  0 
  9  6  2  0  0  0  0 
  8 10  2  0  0  0  0 
 10  9  1  0  0  0  0 
M  END
> <Name>
2-bromobenzoic acid

> <Source>
NIST2DMolFile

> <Tox>
2.530

> <CAS>
88-65-3

$$$$

  CDK

 10 10  0  0  0  0  0  0  0  0999 V2000
    2.6582   -1.1499    0.0000 C   0  0  0  0  0  0  0  0  0  0  0  0
    1.9971   -0.0000    0.0000 N   0  0  0  0  0  0  0  0  0  0  0  0
    3.9896   -1.1499    0.0000 C   0  0  0  0  0  0  0  0  0  0  0  0
    1.9971   -2.3044    0.0000 C   0  0  0  0  0  0  0  0  0  0  0  0
    4.6553   -2.3044    0.0000 C   0  0  0  0  0  0  0  0  0  0  0  0
    2.6582   -3.4542    0.0000 C   0  0  0  0  0  0  0  0  0  0  0  0
    0.6657   -2.3044    0.0000 C   0  0  0  0  0  0  0  0  0  0  0  0
    3.9896   -3.4542    0.0000 C   0  0  0  0  0  0  0  0  0  0  0  0
    0.0000   -3.4542    0.0000 O   0  0  0  0  0  0  0  0  0  0  0  0
    0.0000   -1.1499    0.0000 N   0  0  0  0  0  0  0  0  0  0  0  0
  1  2  1  0  0  0  0 
  1  3  2  0  0  0  0 
  1  4  1  0  0  0  0 
  3  5  1  0  0  0  0 
  6  4  2  0  0  0  0 
  4  7  1  0  0  0  0 
  5  8  2  0  0  0  0 
  8  6  1  0  0  0  0 
  7  9  2  0  0  0  0 
  7 10  1  0  0  0  0 
M  END
> <Name>
Benzamide, o-amino- (VAN) (8CI)

> <Source>
DSSTox2DMolFile

> <Tox>
2.130

> <CAS>
88-68-6

$$$$

  CDK

 10 10  0  0  0  0  0  0  0  0999 V2000
    2.6582   -0.0000    0.0000 Cl  0  0  0  0  0  0  0  0  0  0  0  0
    1.9971   -1.1499    0.0000 C   0  0  0  0  0  0  0  0  0  0  0  0
    2.6582   -2.3044    0.0000 C   0  0  0  0  0  0  0  0  0  0  0  0
    0.6657   -1.1499    0.0000 C   0  0  0  0  0  0  0  0  0  0  0  0
    1.9971   -3.4542    0.0000 C   0  0  0  0  0  0  0  0  0  0  0  0
    3.9896   -2.3044    0.0000 N   0  0  0  0  0  0  0  0  0  0  0  0
    0.0000   -2.3044    0.0000 C   0  0  0  0  0  0  0  0  0  0  0  0
    0.6657   -3.4542    0.0000 C   0  0  0  0  0  0  0  0  0  0  0  0
    4.6553   -1.1499    0.0000 O   0  0  0  0  0  0  0  0  0  0  0  0
    4.6553   -3.4542    0.0000 O   0  0  0  0  0  0  0  0  0  0  0  0
  1  2  1  0  0  0  0 
  2  3  2  0  0  0  0 
  2  4  1  0  0  0  0 
  3  5  1  0  0  0  0 
  3  6  1  0  0  0  0 
  7  4  2  0  0  0  0 
  5  8  2  0  0  0  0 
  6  9  2  0  0  0  0 
  6 10  1  0  0  0  0 
  8  7  1  0  0  0  0 
M  CHG  1   6   1
M  CHG  1  10  -1
M  END
> <Name>
Benzene, 1-chloro-2-nitro-

> <Source>
DSSTox2DMolFile

> <Tox>
3.680

> <CAS>
88-73-3

$$$$

  CDK

 10 10  0  0  0  0  0  0  0  0999 V2000
    2.6582   -0.0000    0.0000 O   0  0  0  0  0  0  0  0  0  0  0  0
    1.9971   -1.1499    0.0000 C   0  0  0  0  0  0  0  0  0  0  0  0
    2.6582   -2.3044    0.0000 C   0  0  0  0  0  0  0  0  0  0  0  0
    0.6657   -1.1499    0.0000 C   0  0  0  0  0  0  0  0  0  0  0  0
    3.9896   -2.3044    0.0000 N   0  0  0  0  0  0  0  0  0  0  0  0
    1.9971   -3.4542    0.0000 C   0  0  0  0  0  0  0  0  0  0  0  0
    0.0000   -2.3044    0.0000 C   0  0  0  0  0  0  0  0  0  0  0  0
    4.6553   -1.1499    0.0000 O   0  0  0  0  0  0  0  0  0  0  0  0
    4.6553   -3.4542    0.0000 O   0  0  0  0  0  0  0  0  0  0  0  0
    0.6657   -3.4542    0.0000 C   0  0  0  0  0  0  0  0  0  0  0  0
  1  2  1  0  0  0  0 
  2  3  2  0  0  0  0 
  2  4  1  0  0  0  0 
  3  5  1  0  0  0  0 
  3  6  1  0  0  0  0 
  7  4  2  0  0  0  0 
  5  8  1  0  0  0  0 
  5  9  2  0  0  0  0 
  6 10  2  0  0  0  0 
 10  7  1  0  0  0  0 
M  CHG  1   5   1
M  CHG  1   8  -1
M  END
> <Name>
Phenol, 2-nitro-

> <Source>
DSSTox2DMolFile

> <Tox>
3.670

> <CAS>
88-75-5

$$$$

  CDK

 11 11  0  0  0  0  0  0  0  0999 V2000
   -0.7889    0.9285    0.0368 C   0  0  0  0  0  0  0  0  0  0  0  0
   -0.4622   -0.4333   -0.0059 C   0  0  0  0  0  0  0  0  0  0  0  0
    0.2239    1.8915    0.0463 C   0  0  0  0  0  0  0  0  0  0  0  0
   -2.3747    1.4658    0.0939 Cl  0  0  0  0  0  0  0  0  0  0  0  0
    0.8836   -0.8187   -0.0280 C   0  0  0  0  0  0  0  0  0  0  0  0
   -1.5144   -1.5053   -0.0334 N   0  0  0  0  0  0  0  0  0  0  0  0
    1.5560    1.5093    0.0144 C   0  0  0  0  0  0  0  0  0  0  0  0
    1.8786    0.1520   -0.0207 C   0  0  0  0  0  0  0  0  0  0  0  0
   -1.2878   -2.5601    0.5235 O   0  0  0  0  0  0  0  0  0  0  0  0
   -2.5566   -1.3029   -0.6191 O   0  0  0  0  0  0  0  0  0  0  0  0
    3.4941   -0.3166   -0.0536 Cl  0  0  0  0  0  0  0  0  0  0  0  0
  1  2  1  0  0  0  0 
  1  3  2  0  0  0  0 
  1  4  1  0  0  0  0 
  2  5  2  0  0  0  0 
  2  6  1  0  0  0  0 
  7  3  1  0  0  0  0 
  5  8  1  0  0  0  0 
  6  9  2  0  0  0  0 
  6 10  1  0  0  0  0 
  8  7  2  0  0  0  0 
  8 11  1  0  0  0  0 
M  CHG  1   6   1
M  CHG  1  10  -1
M  END
> <Name>
Benzene, 1,4-dichloro-2-nitro-

> <Source>
DougDB3DMolFile

> <Tox>
4.130

> <CAS>
89-61-2

$$$$

  CDK

 11 11  0  0  0  0  0  0  0  0999 V2000
    0.0000   -3.4582    0.0000 O   0  0  0  0  0  0  0  0  0  0  0  0
    0.6656   -2.3039    0.0000 N   0  0  0  0  0  0  0  0  0  0  0  0
    0.0000   -1.1543    0.0000 O   0  0  0  0  0  0  0  0  0  0  0  0
    1.9968   -2.3039    0.0000 C   0  0  0  0  0  0  0  0  0  0  0  0
    2.6577   -1.1543    0.0000 C   0  0  0  0  0  0  0  0  0  0  0  0
    2.6577   -3.4582    0.0000 C   0  0  0  0  0  0  0  0  0  0  0  0
    1.9968   -0.0000    0.0000 N   0  0  0  0  0  0  0  0  0  0  0  0
    3.9889   -1.1543    0.0000 C   0  0  0  0  0  0  0  0  0  0  0  0
    3.9889   -3.4582    0.0000 C   0  0  0  0  0  0  0  0  0  0  0  0
    4.6544   -2.3039    0.0000 C   0  0  0  0  0  0  0  0  0  0  0  0
    4.6544   -4.6079    0.0000 C   0  0  0  0  0  0  0  0  0  0  0  0
  1  2  1  0  0  0  0 
  2  3  2  0  0  0  0 
  2  4  1  0  0  0  0 
  4  5  2  0  0  0  0 
  4  6  1  0  0  0  0 
  5  7  1  0  0  0  0 
  5  8  1  0  0  0  0 
  9  6  2  0  0  0  0 
  8 10  2  0  0  0  0 
 10  9  1  0  0  0  0 
  9 11  1  0  0  0  0 
M  CHG  1   1  -1
M  CHG  1   2   1
M  END
> <Name>
Benzenamine, 4-methyl-2-nitro-

> <Source>
DSSTox2DMolFile

> <Tox>
3.370

> <CAS>
89-62-3

$$$$

  CDK

 11 11  0  0  0  0  0  0  0  0999 V2000
    2.5363    1.7247    0.0000 C   0  0  0  0  0  0  0  0  0  0  0  0
    1.5725    1.7247    0.0000 C   0  0  0  0  0  0  0  0  0  0  0  0
    3.0436    2.5870    0.0000 C   0  0  0  0  0  0  0  0  0  0  0  0
    1.0652    2.5870    0.0000 C   0  0  0  0  0  0  0  0  0  0  0  0
    1.0652    0.8623    0.0000 N   0  0  0  0  0  0  0  0  0  0  0  0
    2.5363    3.4494    0.0000 C   0  0  0  0  0  0  0  0  0  0  0  0
    4.0581    2.5870    0.0000 Cl  0  0  0  0  0  0  0  0  0  0  0  0
    1.5725    3.4494    0.0000 C   0  0  0  0  0  0  0  0  0  0  0  0
    0.0507    2.5870    0.0000 O   0  0  0  0  0  0  0  0  0  0  0  0
    1.5218    0.0000    0.0000 O   0  0  0  0  0  0  0  0  0  0  0  0
    0.0000    0.8623    0.0000 O   0  0  0  0  0  0  0  0  0  0  0  0
  2  1  2  0  0  0  0 
  1  3  1  0  0  0  0 
  4  2  1  0  0  0  0 
  2  5  1  0  0  0  0 
  3  6  2  0  0  0  0 
  3  7  1  0  0  0  0 
  8  4  2  0  0  0  0 
  4  9  1  0  0  0  0 
  5 10  2  0  0  0  0 
  5 11  2  0  0  0  0 
  6  8  1  0  0  0  0 
M  END
> <Name>
Phenol, 4-chloro-2-nitro-

> <Source>
NIST2DMolFile

> <Tox>
5.120

> <CAS>
89-64-5

$$$$

  CDK

 12 12  0  0  0  0  0  0  0  0999 V2000
    2.5227    0.5171   -0.0083 C   0  0  0  0  0  0  0  0  0  0  0  0
    2.7413    1.3786   -1.2536 C   0  0  0  0  0  0  0  0  0  0  0  0
    2.7433    1.3668    1.2448 C   0  0  0  0  0  0  0  0  0  0  0  0
    1.1145   -0.0197   -0.0097 C   0  0  0  0  0  0  0  0  0  0  0  0
    0.8938   -1.3890   -0.0160 C   0  0  0  0  0  0  0  0  0  0  0  0
    0.0425    0.8519    0.0010 C   0  0  0  0  0  0  0  0  0  0  0  0
    1.9472   -2.2480   -0.0210 O   0  0  0  0  0  0  0  0  0  0  0  0
   -0.4035   -1.8808   -0.0169 C   0  0  0  0  0  0  0  0  0  0  0  0
   -1.2504    0.3596    0.0002 C   0  0  0  0  0  0  0  0  0  0  0  0
   -1.4726   -1.0063   -0.0114 C   0  0  0  0  0  0  0  0  0  0  0  0
   -2.5958    1.4566    0.0142 Cl  0  0  0  0  0  0  0  0  0  0  0  0
   -2.8820   -1.5399   -0.0128 C   0  0  0  0  0  0  0  0  0  0  0  0
  1  2  1  0  0  0  0 
  1  3  1  0  0  0  0 
  1  4  1  0  0  0  0 
  4  5  2  0  0  0  0 
  4  6  1  0  0  0  0 
  5  7  1  0  0  0  0 
  5  8  1  0  0  0  0 
  6  9  2  0  0  0  0 
  8 10  2  0  0  0  0 
  9 11  1  0  0  0  0 
  9 10  1  0  0  0  0 
 10 12  1  0  0  0  0 
M  END
> <Name>
4-chloro-5-methyl-2-propan-2-ylphenol

> <Source>
NIH3DMolFile

> <Tox>
4.850

> <CAS>
89-68-9

$$$$

  CDK

 11 11  0  0  0  0  0  0  0  0999 V2000
    1.7331    1.5292    0.0000 C   0  0  0  0  0  0  0  0  0  0  0  0
    1.7331    2.4977    0.0000 C   0  0  0  0  0  0  0  0  0  0  0  0
    0.8666    1.0195    0.0000 C   0  0  0  0  0  0  0  0  0  0  0  0
    2.5997    1.0195    0.0000 C   0  0  0  0  0  0  0  0  0  0  0  0
    0.8666    3.0074    0.0000 C   0  0  0  0  0  0  0  0  0  0  0  0
    2.5487    3.0074    0.0000 O   0  0  0  0  0  0  0  0  0  0  0  0
    0.0000    1.5292    0.0000 C   0  0  0  0  0  0  0  0  0  0  0  0
    3.4662    1.5292    0.0000 N   0  0  0  0  0  0  0  0  0  0  0  0
    2.5997    0.0000    0.0000 O   0  0  0  0  0  0  0  0  0  0  0  0
    0.0000    2.4977    0.0000 C   0  0  0  0  0  0  0  0  0  0  0  0
    4.3837    1.0195    0.0000 O   0  0  0  0  0  0  0  0  0  0  0  0
  2  1  2  0  0  0  0 
  1  3  1  0  0  0  0 
  1  4  1  0  0  0  0 
  5  2  1  0  0  0  0 
  2  6  1  0  0  0  0 
  3  7  2  0  0  0  0 
  4  8  1  0  0  0  0 
  4  9  2  0  0  0  0 
 10  5  2  0  0  0  0 
  7 10  1  0  0  0  0 
  8 11  1  0  0  0  0 
M  END
> <Name>
Benzamide, N,2-dihydroxy- (9CI)

> <Source>
NIST2DMolFile

> <Tox>
3.380

> <CAS>
89-73-6

$$$$

  CDK

 11 11  0  0  0  0  0  0  0  0999 V2000
   -2.0951    0.2785    0.0000 C   0  0  0  0  0  0  0  0  0  0  0  0
   -2.8079    1.6016    0.0011 C   0  0  0  0  0  0  0  0  0  0  0  0
   -2.7359   -0.7710   -0.0011 O   0  0  0  0  0  0  0  0  0  0  0  0
   -0.6174    0.2492    0.0000 C   0  0  0  0  0  0  0  0  0  0  0  0
    0.0747   -0.9853    0.0002 C   0  0  0  0  0  0  0  0  0  0  0  0
    0.1365    1.4327   -0.0005 C   0  0  0  0  0  0  0  0  0  0  0  0
    1.4807   -1.0270    0.0003 C   0  0  0  0  0  0  0  0  0  0  0  0
   -0.5358   -2.1918    0.0004 O   0  0  0  0  0  0  0  0  0  0  0  0
    1.5162    1.4141   -0.0005 C   0  0  0  0  0  0  0  0  0  0  0  0
    2.1865    0.1748    0.0000 C   0  0  0  0  0  0  0  0  0  0  0  0
    3.5472    0.2342    0.0001 O   0  0  0  0  0  0  0  0  0  0  0  0
  1  2  1  0  0  0  0 
  1  3  2  0  0  0  0 
  1  4  1  0  0  0  0 
  4  5  1  0  0  0  0 
  4  6  2  0  0  0  0 
  5  7  2  0  0  0  0 
  5  8  1  0  0  0  0 
  9  6  1  0  0  0  0 
  7 10  1  0  0  0  0 
 10  9  2  0  0  0  0 
 10 11  1  0  0  0  0 
M  END
> <Name>
Ethanone, 1-(2,4-dihydroxyphenyl)-

> <Source>
DougDB3DMolFile

> <Tox>
3.250

> <CAS>
89-84-9

$$$$

  CDK

  9  9  0  0  0  0  0  0  0  0999 V2000
    0.9261    1.9551    0.0000 C   0  0  0  0  0  0  0  0  0  0  0  0
    1.8007    1.4406    0.0000 C   0  0  0  0  0  0  0  0  0  0  0  0
    2.6754    1.9551    0.0000 C   0  0  0  0  0  0  0  0  0  0  0  0
    1.8007    0.5145    0.0000 C   0  0  0  0  0  0  0  0  0  0  0  0
    3.5500    1.4406    0.0000 C   0  0  0  0  0  0  0  0  0  0  0  0
    2.6754    0.0000    0.0000 C   0  0  0  0  0  0  0  0  0  0  0  0
    0.9261    0.0000    0.0000 C   0  0  0  0  0  0  0  0  0  0  0  0
    3.5500    0.5145    0.0000 C   0  0  0  0  0  0  0  0  0  0  0  0
    0.0000    0.5145    0.0000 O   0  0  0  0  0  0  0  0  0  0  0  0
  1  2  1  0  0  0  0 
  2  3  2  0  0  0  0 
  4  2  1  0  0  0  0 
  3  5  1  0  0  0  0 
  6  4  2  0  0  0  0 
  4  7  1  0  0  0  0 
  5  8  2  0  0  0  0 
  8  6  1  0  0  0  0 
  7  9  1  0  0  0  0 
M  END
> <Name>
Benzyl alcohol, o-methyl- (8CI)

> <Source>
NIST2DMolFile

> <Tox>
2.570

> <CAS>
89-95-2

$$$$

  CDK

  9  9  0  0  0  0  0  0  0  0999 V2000
    1.9976   -1.1501    0.0000 C   0  0  0  0  0  0  0  0  0  0  0  0
    2.6588   -2.3049    0.0000 C   0  0  0  0  0  0  0  0  0  0  0  0
    0.6659   -1.1501    0.0000 C   0  0  0  0  0  0  0  0  0  0  0  0
    2.6588   -0.0000    0.0000 O   0  0  0  0  0  0  0  0  0  0  0  0
    3.9905   -2.3049    0.0000 C   0  0  0  0  0  0  0  0  0  0  0  0
    1.9976   -3.4550    0.0000 C   0  0  0  0  0  0  0  0  0  0  0  0
    0.0000   -2.3049    0.0000 C   0  0  0  0  0  0  0  0  0  0  0  0
    4.6563   -3.4550    0.0000 C   0  0  0  0  0  0  0  0  0  0  0  0
    0.6659   -3.4550    0.0000 C   0  0  0  0  0  0  0  0  0  0  0  0
  1  2  2  0  0  0  0 
  1  3  1  0  0  0  0 
  1  4  1  0  0  0  0 
  2  5  1  0  0  0  0 
  2  6  1  0  0  0  0 
  7  3  2  0  0  0  0 
  5  8  1  0  0  0  0 
  6  9  2  0  0  0  0 
  9  7  1  0  0  0  0 
M  END
> <Name>
Phenol, 2-ethyl-

> <Source>
DSSTox2DMolFile

> <Tox>
3.160

> <CAS>
90-00-6

$$$$

  CDK

  9  9  0  0  0  0  0  0  0  0999 V2000
    0.5024    0.0000    0.0000 C   0  0  0  0  0  0  0  0  0  0  0  0
    0.0000    0.8540    0.0000 C   0  0  0  0  0  0  0  0  0  0  0  0
    1.5071    0.0000    0.0000 C   0  0  0  0  0  0  0  0  0  0  0  0
    0.5024    1.7583    0.0000 C   0  0  0  0  0  0  0  0  0  0  0  0
    2.0095    0.8540    0.0000 C   0  0  0  0  0  0  0  0  0  0  0  0
    1.5071    1.7583    0.0000 C   0  0  0  0  0  0  0  0  0  0  0  0
    2.9640    0.8540    0.0000 C   0  0  0  0  0  0  0  0  0  0  0  0
    2.2104    2.4616    0.0000 O   0  0  0  0  0  0  0  0  0  0  0  0
    3.4664    0.0000    0.0000 O   0  0  0  0  0  0  0  0  0  0  0  0
  1  2  2  0  0  0  0 
  3  1  1  0  0  0  0 
  2  4  1  0  0  0  0 
  5  3  2  0  0  0  0 
  4  6  2  0  0  0  0 
  6  5  1  0  0  0  0 
  5  7  1  0  0  0  0 
  6  8  1  0  0  0  0 
  7  9  1  0  0  0  0 
M  END
> <Name>
2-(hydroxymethyl)phenol

> <Source>
NIST2DMolFile

> <Tox>
2.050

> <CAS>
90-01-7

$$$$

  CDK

  9  9  0  0  0  0  0  0  0  0999 V2000
    4.6563   -3.4550    0.0000 O   0  0  0  0  0  0  0  0  0  0  0  0
    3.9905   -2.3049    0.0000 C   0  0  0  0  0  0  0  0  0  0  0  0
    2.6588   -2.3049    0.0000 C   0  0  0  0  0  0  0  0  0  0  0  0
    1.9976   -3.4550    0.0000 C   0  0  0  0  0  0  0  0  0  0  0  0
    1.9976   -1.1501    0.0000 C   0  0  0  0  0  0  0  0  0  0  0  0
    0.6659   -3.4550    0.0000 C   0  0  0  0  0  0  0  0  0  0  0  0
    0.6659   -1.1501    0.0000 C   0  0  0  0  0  0  0  0  0  0  0  0
    2.6588   -0.0000    0.0000 O   0  0  0  0  0  0  0  0  0  0  0  0
    0.0000   -2.3049    0.0000 C   0  0  0  0  0  0  0  0  0  0  0  0
  1  2  2  0  0  0  0 
  2  3  1  0  0  0  0 
  3  4  2  0  0  0  0 
  3  5  1  0  0  0  0 
  4  6  1  0  0  0  0 
  7  5  2  0  0  0  0 
  5  8  1  0  0  0  0 
  6  9  2  0  0  0  0 
  9  7  1  0  0  0  0 
M  END
> <Name>
Benzaldehyde, 2-hydroxy-

> <Source>
DSSTox2DMolFile

> <Tox>
3.420

> <CAS>
90-02-8

$$$$

  CDK

  9  9  0  0  0  0  0  0  0  0999 V2000
    1.9859   -1.1507    0.0000 C   0  0  0  0  0  0  0  0  0  0  0  0
    2.6540   -2.3061    0.0000 C   0  0  0  0  0  0  0  0  0  0  0  0
    2.6540   -0.0000    0.0000 N   0  0  0  0  0  0  0  0  0  0  0  0
    0.6542   -1.1507    0.0000 C   0  0  0  0  0  0  0  0  0  0  0  0
    3.9857   -2.3061    0.0000 O   0  0  0  0  0  0  0  0  0  0  0  0
    1.9859   -3.4568    0.0000 C   0  0  0  0  0  0  0  0  0  0  0  0
    0.0000   -2.3061    0.0000 C   0  0  0  0  0  0  0  0  0  0  0  0
    4.6399   -1.1507    0.0000 C   0  0  0  0  0  0  0  0  0  0  0  0
    0.6542   -3.4568    0.0000 C   0  0  0  0  0  0  0  0  0  0  0  0
  1  2  1  0  0  0  0 
  1  3  1  0  0  0  0 
  1  4  2  0  0  0  0 
  2  5  1  0  0  0  0 
  2  6  2  0  0  0  0 
  4  7  1  0  0  0  0 
  5  8  1  0  0  0  0 
  6  9  1  0  0  0  0 
  7  9  2  0  0  0  0 
M  END
> <Name>
Benzenamine, 2-methoxy-

> <Source>
DSSTox2DMolFile

> <Tox>
2.310

> <CAS>
90-04-0

$$$$

  CDK

 11 12  0  0  0  0  0  0  0  0999 V2000
    0.0000   -2.6579    0.0000 C   0  0  0  0  0  0  0  0  0  0  0  0
    1.1497   -1.9969    0.0000 C   0  0  0  0  0  0  0  0  0  0  0  0
    2.3041   -2.6579    0.0000 C   0  0  0  0  0  0  0  0  0  0  0  0
    1.1497   -0.6656    0.0000 C   0  0  0  0  0  0  0  0  0  0  0  0
    3.4538   -1.9969    0.0000 C   0  0  0  0  0  0  0  0  0  0  0  0
    2.3041   -3.9891    0.0000 C   0  0  0  0  0  0  0  0  0  0  0  0
    2.3041   -0.0000    0.0000 C   0  0  0  0  0  0  0  0  0  0  0  0
    3.4538   -0.6656    0.0000 C   0  0  0  0  0  0  0  0  0  0  0  0
    4.6082   -2.6579    0.0000 C   0  0  0  0  0  0  0  0  0  0  0  0
    3.4538   -4.6548    0.0000 C   0  0  0  0  0  0  0  0  0  0  0  0
    4.6082   -3.9891    0.0000 C   0  0  0  0  0  0  0  0  0  0  0  0
  1  2  1  0  0  0  0 
  2  3  2  0  0  0  0 
  2  4  1  0  0  0  0 
  3  5  1  0  0  0  0 
  3  6  1  0  0  0  0 
  7  4  2  0  0  0  0 
  5  8  2  0  0  0  0 
  5  9  1  0  0  0  0 
 10  6  2  0  0  0  0 
  8  7  1  0  0  0  0 
  9 11  2  0  0  0  0 
 11 10  1  0  0  0  0 
M  END
> <Name>
Naphthalene, 1-methyl-

> <Source>
DSSTox2DMolFile

> <Tox>
3.740

> <CAS>
90-12-0

$$$$

  CDK

 11 12  0  0  0  0  0  0  0  0999 V2000
    0.0000   -1.5884    0.0000 C   0  0  0  0  0  0  0  0  0  0  0  0
    0.0000   -2.9586    0.0000 C   0  0  0  0  0  0  0  0  0  0  0  0
    1.1854   -0.9151    0.0000 C   0  0  0  0  0  0  0  0  0  0  0  0
    1.1854   -3.6461    0.0000 C   0  0  0  0  0  0  0  0  0  0  0  0
    2.3660   -1.5979    0.0000 C   0  0  0  0  0  0  0  0  0  0  0  0
    2.3660   -2.9634    0.0000 C   0  0  0  0  0  0  0  0  0  0  0  0
    3.5608   -0.9246    0.0000 C   0  0  0  0  0  0  0  0  0  0  0  0
    3.5608   -3.6509    0.0000 C   0  0  0  0  0  0  0  0  0  0  0  0
    4.7414   -1.6073    0.0000 C   0  0  0  0  0  0  0  0  0  0  0  0
    3.5703   -0.0000    0.0000 Cl  0  0  0  0  0  0  0  0  0  0  0  0
    4.7414   -2.9681    0.0000 C   0  0  0  0  0  0  0  0  0  0  0  0
  1  2  1  0  0  0  0 
  1  3  2  0  0  0  0 
  2  4  2  0  0  0  0 
  5  3  1  0  0  0  0 
  4  6  1  0  0  0  0 
  6  5  1  0  0  0  0 
  5  7  2  0  0  0  0 
  6  8  2  0  0  0  0 
  9  7  1  0  0  0  0 
  7 10  1  0  0  0  0 
  8 11  1  0  0  0  0 
 11  9  2  0  0  0  0 
M  END
> <Name>
Naphthalene, 1-chloro-

> <Source>
DSSTox2DMolFile

> <Tox>
3.810

> <CAS>
90-13-1

$$$$

  CDK

 11 12  0  0  0  0  0  0  0  0999 V2000
    3.4555   -0.0000    0.0000 O   0  0  0  0  0  0  0  0  0  0  0  0
    3.4555   -1.3315    0.0000 C   0  0  0  0  0  0  0  0  0  0  0  0
    4.6073   -1.9950    0.0000 C   0  0  0  0  0  0  0  0  0  0  0  0
    2.3037   -1.9950    0.0000 C   0  0  0  0  0  0  0  0  0  0  0  0
    4.6073   -3.3265    0.0000 C   0  0  0  0  0  0  0  0  0  0  0  0
    2.3037   -3.3265    0.0000 C   0  0  0  0  0  0  0  0  0  0  0  0
    1.1518   -1.3315    0.0000 C   0  0  0  0  0  0  0  0  0  0  0  0
    3.4555   -3.9899    0.0000 C   0  0  0  0  0  0  0  0  0  0  0  0
    1.1518   -3.9899    0.0000 C   0  0  0  0  0  0  0  0  0  0  0  0
    0.0000   -1.9950    0.0000 C   0  0  0  0  0  0  0  0  0  0  0  0
    0.0000   -3.3265    0.0000 C   0  0  0  0  0  0  0  0  0  0  0  0
  1  2  1  0  0  0  0 
  2  3  2  0  0  0  0 
  2  4  1  0  0  0  0 
  3  5  1  0  0  0  0 
  6  4  1  0  0  0  0 
  7  4  2  0  0  0  0 
  5  8  2  0  0  0  0 
  8  6  1  0  0  0  0 
  6  9  2  0  0  0  0 
 10  7  1  0  0  0  0 
  9 11  1  0  0  0  0 
 11 10  2  0  0  0  0 
M  END
> <Name>
1-Naphthalenol

> <Source>
DSSTox2DMolFile

> <Tox>
3.750

> <CAS>
90-15-3

$$$$

  CDK

 11 11  0  0  0  0  0  0  0  0999 V2000
    1.3306   -5.7600    0.0000 Br  0  0  0  0  0  0  0  0  0  0  0  0
    1.9930   -4.6080    0.0000 C   0  0  0  0  0  0  0  0  0  0  0  0
    1.3306   -3.4560    0.0000 C   0  0  0  0  0  0  0  0  0  0  0  0
    3.3235   -4.6080    0.0000 C   0  0  0  0  0  0  0  0  0  0  0  0
    0.0000   -3.4560    0.0000 O   0  0  0  0  0  0  0  0  0  0  0  0
    1.9930   -2.3040    0.0000 C   0  0  0  0  0  0  0  0  0  0  0  0
    3.9917   -3.4560    0.0000 C   0  0  0  0  0  0  0  0  0  0  0  0
    1.3306   -1.1520    0.0000 C   0  0  0  0  0  0  0  0  0  0  0  0
    3.3235   -2.3040    0.0000 C   0  0  0  0  0  0  0  0  0  0  0  0
    5.3222   -3.4560    0.0000 Br  0  0  0  0  0  0  0  0  0  0  0  0
    1.9930   -0.0000    0.0000 O   0  0  0  0  0  0  0  0  0  0  0  0
  1  2  1  0  0  0  0 
  2  3  2  0  0  0  0 
  2  4  1  0  0  0  0 
  3  5  1  0  0  0  0 
  3  6  1  0  0  0  0 
  7  4  2  0  0  0  0 
  6  8  1  0  0  0  0 
  6  9  2  0  0  0  0 
  9  7  1  0  0  0  0 
  7 10  1  0  0  0  0 
  8 11  2  0  0  0  0 
M  END
> <Name>
Salicylaldehyde, 3,5-dibromo- (6CI,7CI,8CI)

> <Source>
DSSTox2DMolFile

> <Tox>
4.650

> <CAS>
90-59-5

$$$$

  CDK

 11 11  0  0  0  0  0  0  0  0999 V2000
    0.8508    3.0028    0.0000 C   0  0  0  0  0  0  0  0  0  0  0  0
    0.0000    2.5023    0.0000 O   0  0  0  0  0  0  0  0  0  0  0  0
    1.7016    2.5023    0.0000 C   0  0  0  0  0  0  0  0  0  0  0  0
    2.6024    3.0028    0.0000 C   0  0  0  0  0  0  0  0  0  0  0  0
    1.7016    1.5014    0.0000 C   0  0  0  0  0  0  0  0  0  0  0  0
    2.6024    4.0037    0.0000 O   0  0  0  0  0  0  0  0  0  0  0  0
    3.4532    2.5023    0.0000 C   0  0  0  0  0  0  0  0  0  0  0  0
    2.6024    1.0009    0.0000 C   0  0  0  0  0  0  0  0  0  0  0  0
    4.3040    3.0028    0.0000 Cl  0  0  0  0  0  0  0  0  0  0  0  0
    3.4532    1.5014    0.0000 C   0  0  0  0  0  0  0  0  0  0  0  0
    2.6024    0.0000    0.0000 Cl  0  0  0  0  0  0  0  0  0  0  0  0
  1  2  2  0  0  0  0 
  1  3  1  0  0  0  0 
  3  4  2  0  0  0  0 
  5  3  1  0  0  0  0 
  4  6  1  0  0  0  0 
  4  7  1  0  0  0  0 
  8  5  2  0  0  0  0 
  7  9  1  0  0  0  0 
  7 10  2  0  0  0  0 
 10  8  1  0  0  0  0 
  8 11  1  0  0  0  0 
M  END
> <Name>
Salicylaldehyde, 3,5-dichloro- (8CI)

> <Source>
NIST2DMolFile

> <Tox>
4.550

> <CAS>
90-60-8

$$$$

  CDK

 19 19  0  0  0  0  0  0  0  0999 V2000
    4.6079   -2.0013    0.0000 C   0  0  0  0  0  0  0  0  0  0  0  0
    4.6079   -0.6537    0.0000 O   0  0  0  0  0  0  0  0  0  0  0  0
    5.7618   -2.6550    0.0000 C   0  0  0  0  0  0  0  0  0  0  0  0
    3.4620   -2.6550    0.0000 C   0  0  0  0  0  0  0  0  0  0  0  0
    5.7618   -3.9865    0.0000 C   0  0  0  0  0  0  0  0  0  0  0  0
    6.9158   -2.0013    0.0000 C   0  0  0  0  0  0  0  0  0  0  0  0
    3.4620   -3.9865    0.0000 C   0  0  0  0  0  0  0  0  0  0  0  0
    2.3080   -2.0013    0.0000 C   0  0  0  0  0  0  0  0  0  0  0  0
    4.6079   -4.6563    0.0000 C   0  0  0  0  0  0  0  0  0  0  0  0
    6.9158   -0.6537    0.0000 N   0  0  0  0  0  0  0  0  0  0  0  0
    1.1540   -2.6550    0.0000 N   0  0  0  0  0  0  0  0  0  0  0  0
    4.6079   -5.9878    0.0000 C   0  0  0  0  0  0  0  0  0  0  0  0
    8.0698   -0.0000    0.0000 C   0  0  0  0  0  0  0  0  0  0  0  0
    5.7618   -0.0000    0.0000 C   0  0  0  0  0  0  0  0  0  0  0  0
    0.0000   -2.0013    0.0000 C   0  0  0  0  0  0  0  0  0  0  0  0
    1.1540   -3.9865    0.0000 C   0  0  0  0  0  0  0  0  0  0  0  0
    5.7618   -6.6415    0.0000 N   0  0  0  0  0  0  0  0  0  0  0  0
    5.7618   -7.9730    0.0000 C   0  0  0  0  0  0  0  0  0  0  0  0
    6.9158   -5.9878    0.0000 C   0  0  0  0  0  0  0  0  0  0  0  0
  1  2  1  0  0  0  0 
  1  3  2  0  0  0  0 
  1  4  1  0  0  0  0 
  3  5  1  0  0  0  0 
  3  6  1  0  0  0  0 
  4  7  2  0  0  0  0 
  4  8  1  0  0  0  0 
  5  9  2  0  0  0  0 
  6 10  1  0  0  0  0 
  7  9  1  0  0  0  0 
  8 11  1  0  0  0  0 
  9 12  1  0  0  0  0 
 10 13  1  0  0  0  0 
 10 14  1  0  0  0  0 
 11 15  1  0  0  0  0 
 11 16  1  0  0  0  0 
 12 17  1  0  0  0  0 
 17 18  1  0  0  0  0 
 17 19  1  0  0  0  0 
M  END
> <Name>
Mesitol, alpha,alpha',alpha''-tris(dimethylamino)- (7CI,8CI)

> <Source>
DSSTox2DMolFile

> <Tox>
2.480

> <CAS>
90-72-2

$$$$

  CDK

 15 16  0  0  0  0  0  0  0  0999 V2000
    5.2243    1.7414    0.0000 C   0  0  0  0  0  0  0  0  0  0  0  0
    6.2195    1.7414    0.0000 C   0  0  0  0  0  0  0  0  0  0  0  0
    4.7268    0.8956    0.0000 C   0  0  0  0  0  0  0  0  0  0  0  0
    6.7170    0.8956    0.0000 C   0  0  0  0  0  0  0  0  0  0  0  0
    5.2243    0.0000    0.0000 C   0  0  0  0  0  0  0  0  0  0  0  0
    3.8809    1.3932    0.0000 C   0  0  0  0  0  0  0  0  0  0  0  0
    6.2195    0.0000    0.0000 C   0  0  0  0  0  0  0  0  0  0  0  0
    3.8809    2.3883    0.0000 O   0  0  0  0  0  0  0  0  0  0  0  0
    2.9853    0.8956    0.0000 C   0  0  0  0  0  0  0  0  0  0  0  0
    2.4878    1.7414    0.0000 C   0  0  0  0  0  0  0  0  0  0  0  0
    2.4878    0.0000    0.0000 C   0  0  0  0  0  0  0  0  0  0  0  0
    1.4927    1.7414    0.0000 C   0  0  0  0  0  0  0  0  0  0  0  0
    1.4927    0.0000    0.0000 C   0  0  0  0  0  0  0  0  0  0  0  0
    0.9951    0.8956    0.0000 C   0  0  0  0  0  0  0  0  0  0  0  0
    0.0000    0.8956    0.0000 Br  0  0  0  0  0  0  0  0  0  0  0  0
  1  2  2  0  0  0  0 
  3  1  1  0  0  0  0 
  2  4  1  0  0  0  0 
  5  3  2  0  0  0  0 
  3  6  1  0  0  0  0 
  4  7  2  0  0  0  0 
  7  5  1  0  0  0  0 
  8  6  2  0  0  0  0 
  6  9  1  0  0  0  0 
 10  9  2  0  0  0  0 
  9 11  1  0  0  0  0 
 12 10  1  0  0  0  0 
 11 13  2  0  0  0  0 
 14 12  2  0  0  0  0 
 13 14  1  0  0  0  0 
 15 14  1  0  0  0  0 
M  END
> <Name>
Methanone, (4-bromophenyl)phenyl- (9CI)

> <Source>
NIST2DMolFile

> <Tox>
4.260

> <CAS>
90-90-4

$$$$

  CDK

 14 15  0  0  0  0  0  0  0  0999 V2000
    0.0009   -0.7927   -1.0701 C   0  0  0  0  0  0  0  0  0  0  0  0
   -1.2409   -0.2356   -0.4042 C   0  0  0  0  0  0  0  0  0  0  0  0
    1.2386   -0.2410   -0.3988 C   0  0  0  0  0  0  0  0  0  0  0  0
    0.0664   -2.2073   -1.0298 O   0  0  0  0  0  0  0  0  0  0  0  0
   -1.7546   -0.8053    0.7608 C   0  0  0  0  0  0  0  0  0  0  0  0
   -1.8731    0.8753   -0.9646 C   0  0  0  0  0  0  0  0  0  0  0  0
    1.7304   -0.7877    0.7864 C   0  0  0  0  0  0  0  0  0  0  0  0
    1.8937    0.8469   -0.9793 C   0  0  0  0  0  0  0  0  0  0  0  0
   -2.8949   -0.2738    1.3532 C   0  0  0  0  0  0  0  0  0  0  0  0
   -3.0106    1.4063   -0.3676 C   0  0  0  0  0  0  0  0  0  0  0  0
    2.8686   -0.2535    1.3810 C   0  0  0  0  0  0  0  0  0  0  0  0
    3.0274    1.3813   -0.3786 C   0  0  0  0  0  0  0  0  0  0  0  0
   -3.5243    0.8311    0.7901 C   0  0  0  0  0  0  0  0  0  0  0  0
    3.5174    0.8309    0.8011 C   0  0  0  0  0  0  0  0  0  0  0  0
  1  2  1  0  0  0  0 
  1  3  1  0  0  0  0 
  1  4  1  0  0  0  0 
  2  5  1  0  0  0  0 
  2  6  2  0  0  0  0 
  3  7  1  0  0  0  0 
  3  8  2  0  0  0  0 
  5  9  2  0  0  0  0 
 10  6  1  0  0  0  0 
  7 11  2  0  0  0  0 
 12  8  1  0  0  0  0 
  9 13  1  0  0  0  0 
 13 10  2  0  0  0  0 
 11 14  1  0  0  0  0 
 14 12  2  0  0  0  0 
M  END
> <Name>
Benzenemethanol, alpha-phenyl-

> <Source>
DougDB3DMolFile

> <Tox>
3.500

> <CAS>
91-01-0

$$$$

  CDK

 10 10  0  0  0  0  0  0  0  0999 V2000
    2.2712   -0.7112    0.0000 C   0  0  0  0  0  0  0  0  0  0  0  0
    1.1608   -0.0000    0.0000 C   0  0  0  0  0  0  0  0  0  0  0  0
    2.2712   -2.0143    0.0000 C   0  0  0  0  0  0  0  0  0  0  0  0
    3.4458   -0.0321    0.0000 C   0  0  0  0  0  0  0  0  0  0  0  0
    0.0000   -0.7112    0.0000 C   0  0  0  0  0  0  0  0  0  0  0  0
    1.1608   -2.7071    0.0000 C   0  0  0  0  0  0  0  0  0  0  0  0
    3.4458   -2.6566    0.0000 C   0  0  0  0  0  0  0  0  0  0  0  0
    4.5883   -0.7250    0.0000 N   0  0  0  0  0  0  0  0  0  0  0  0
    0.0000   -2.0143    0.0000 C   0  0  0  0  0  0  0  0  0  0  0  0
    3.4458   -3.9781    0.0000 N   0  0  0  0  0  0  0  0  0  0  0  0
  1  2  2  0  0  0  0 
  1  3  1  0  0  0  0 
  1  4  1  0  0  0  0 
  2  5  1  0  0  0  0 
  6  3  2  0  0  0  0 
  3  7  1  0  0  0  0 
  4  8  3  0  0  0  0 
  5  9  2  0  0  0  0 
  9  6  1  0  0  0  0 
  7 10  3  0  0  0  0 
M  END
> <Name>
1,2-Benzenedicarbonitrile

> <Source>
DSSTox2DMolFile

> <Tox>
2.660

> <CAS>
91-15-6

$$$$

  CDK

 10 11  0  0  0  0  0  0  0  0999 V2000
    3.4558   -0.0000    0.0000 C   0  0  0  0  0  0  0  0  0  0  0  0
    2.3039   -0.6635    0.0000 C   0  0  0  0  0  0  0  0  0  0  0  0
    4.6078   -0.6635    0.0000 C   0  0  0  0  0  0  0  0  0  0  0  0
    2.3039   -1.9952    0.0000 C   0  0  0  0  0  0  0  0  0  0  0  0
    1.1519   -0.0000    0.0000 C   0  0  0  0  0  0  0  0  0  0  0  0
    4.6078   -1.9952    0.0000 C   0  0  0  0  0  0  0  0  0  0  0  0
    3.4558   -2.6587    0.0000 C   0  0  0  0  0  0  0  0  0  0  0  0
    1.1519   -2.6587    0.0000 C   0  0  0  0  0  0  0  0  0  0  0  0
    0.0000   -0.6635    0.0000 C   0  0  0  0  0  0  0  0  0  0  0  0
    0.0000   -1.9952    0.0000 C   0  0  0  0  0  0  0  0  0  0  0  0
  1  2  2  0  0  0  0 
  1  3  1  0  0  0  0 
  2  4  1  0  0  0  0 
  2  5  1  0  0  0  0 
  6  3  2  0  0  0  0 
  4  7  2  0  0  0  0 
  4  8  1  0  0  0  0 
  9  5  2  0  0  0  0 
  7  6  1  0  0  0  0 
  8 10  2  0  0  0  0 
 10  9  1  0  0  0  0 
M  END
> <Name>
Naphthalene, pure

> <Source>
DSSTox2DMolFile

> <Tox>
2.880

> <CAS>
91-20-3

$$$$

  CDK

 10 11  0  0  0  0  0  0  0  0999 V2000
    3.4558   -2.6587    0.0000 N   0  0  0  0  0  0  0  0  0  0  0  0
    4.6078   -1.9952    0.0000 C   0  0  0  0  0  0  0  0  0  0  0  0
    2.3039   -1.9952    0.0000 C   0  0  0  0  0  0  0  0  0  0  0  0
    4.6078   -0.6635    0.0000 C   0  0  0  0  0  0  0  0  0  0  0  0
    2.3039   -0.6635    0.0000 C   0  0  0  0  0  0  0  0  0  0  0  0
    1.1519   -2.6587    0.0000 C   0  0  0  0  0  0  0  0  0  0  0  0
    3.4558   -0.0000    0.0000 C   0  0  0  0  0  0  0  0  0  0  0  0
    1.1519   -0.0000    0.0000 C   0  0  0  0  0  0  0  0  0  0  0  0
    0.0000   -1.9952    0.0000 C   0  0  0  0  0  0  0  0  0  0  0  0
    0.0000   -0.6635    0.0000 C   0  0  0  0  0  0  0  0  0  0  0  0
  1  2  2  0  0  0  0 
  1  3  1  0  0  0  0 
  2  4  1  0  0  0  0 
  5  3  2  0  0  0  0 
  3  6  1  0  0  0  0 
  4  7  2  0  0  0  0 
  7  5  1  0  0  0  0 
  5  8  1  0  0  0  0 
  6  9  2  0  0  0  0 
 10  8  2  0  0  0  0 
  9 10  1  0  0  0  0 
M  END
> <Name>
Quinoline

> <Source>
DSSTox2DMolFile

> <Tox>
3.090

> <CAS>
91-22-5

$$$$

  CDK

 11 12  0  0  0  0  0  0  0  0999 V2000
    2.2832   -0.6556    0.0000 C   0  0  0  0  0  0  0  0  0  0  0  0
    1.1445   -0.0000    0.0000 C   0  0  0  0  0  0  0  0  0  0  0  0
    3.4449   -0.0000    0.0000 C   0  0  0  0  0  0  0  0  0  0  0  0
    2.2832   -2.0071    0.0000 C   0  0  0  0  0  0  0  0  0  0  0  0
    0.0000   -0.6556    0.0000 C   0  0  0  0  0  0  0  0  0  0  0  0
    4.5893   -0.6729    0.0000 C   0  0  0  0  0  0  0  0  0  0  0  0
    1.1445   -2.6627    0.0000 C   0  0  0  0  0  0  0  0  0  0  0  0
    3.4449   -2.6627    0.0000 C   0  0  0  0  0  0  0  0  0  0  0  0
    0.0000   -2.0071    0.0000 C   0  0  0  0  0  0  0  0  0  0  0  0
    4.5893   -2.0071    0.0000 C   0  0  0  0  0  0  0  0  0  0  0  0
    5.7510   -0.0000    0.0000 C   0  0  0  0  0  0  0  0  0  0  0  0
  1  2  2  0  0  0  0 
  1  3  1  0  0  0  0 
  1  4  1  0  0  0  0 
  2  5  1  0  0  0  0 
  3  6  2  0  0  0  0 
  4  7  2  0  0  0  0 
  4  8  1  0  0  0  0 
  5  9  2  0  0  0  0 
  6 10  1  0  0  0  0 
  6 11  1  0  0  0  0 
  7  9  1  0  0  0  0 
  8 10  2  0  0  0  0 
M  END
> <Name>
Naphthalene, 2-methyl-

> <Source>
DSSTox2DMolFile

> <Tox>
4.080

> <CAS>
91-57-6

$$$$

  CDK

 11 12  0  0  0  0  0  0  0  0999 V2000
   -3.4573   -0.7366   -0.0006 C   0  0  0  0  0  0  0  0  0  0  0  0
   -2.0632   -0.2087    0.0004 C   0  0  0  0  0  0  0  0  0  0  0  0
   -1.0469   -1.0676    0.0004 N   0  0  0  0  0  0  0  0  0  0  0  0
   -1.8510    1.2051    0.0003 C   0  0  0  0  0  0  0  0  0  0  0  0
    0.2594   -0.5885    0.0002 C   0  0  0  0  0  0  0  0  0  0  0  0
   -0.5787    1.6995    0.0001 C   0  0  0  0  0  0  0  0  0  0  0  0
    0.5237    0.7979    0.0000 C   0  0  0  0  0  0  0  0  0  0  0  0
    1.3371   -1.5165    0.0002 C   0  0  0  0  0  0  0  0  0  0  0  0
    1.8683    1.2463   -0.0002 C   0  0  0  0  0  0  0  0  0  0  0  0
    2.6259   -1.0505   -0.0001 C   0  0  0  0  0  0  0  0  0  0  0  0
    2.8937    0.3374   -0.0003 C   0  0  0  0  0  0  0  0  0  0  0  0
  1  2  1  0  0  0  0 
  3  2  2  0  0  0  0 
  2  4  1  0  0  0  0 
  3  5  1  0  0  0  0 
  4  6  2  0  0  0  0 
  7  5  1  0  0  0  0 
  8  5  2  0  0  0  0 
  6  7  1  0  0  0  0 
  7  9  2  0  0  0  0 
 10  8  1  0  0  0  0 
  9 11  1  0  0  0  0 
 11 10  2  0  0  0  0 
M  END
> <Name>
Quinoline, 2-methyl-

> <Source>
DougDB3DMolFile

> <Tox>
3.470

> <CAS>
91-63-4

$$$$

  CDK

 11 11  0  0  0  0  0  0  0  0999 V2000
    0.0000   -2.3044    0.0000 C   0  0  0  0  0  0  0  0  0  0  0  0
    1.3288   -2.3044    0.0000 C   0  0  0  0  0  0  0  0  0  0  0  0
    1.9932   -1.1552    0.0000 N   0  0  0  0  0  0  0  0  0  0  0  0
    1.3288   -0.0000    0.0000 C   0  0  0  0  0  0  0  0  0  0  0  0
    3.3279   -1.1552    0.0000 C   0  0  0  0  0  0  0  0  0  0  0  0
    0.0000   -0.0000    0.0000 C   0  0  0  0  0  0  0  0  0  0  0  0
    3.9923   -0.0000    0.0000 C   0  0  0  0  0  0  0  0  0  0  0  0
    3.9923   -2.3044    0.0000 C   0  0  0  0  0  0  0  0  0  0  0  0
    5.3211   -0.0000    0.0000 C   0  0  0  0  0  0  0  0  0  0  0  0
    5.3211   -2.3044    0.0000 C   0  0  0  0  0  0  0  0  0  0  0  0
    5.9855   -1.1552    0.0000 C   0  0  0  0  0  0  0  0  0  0  0  0
  1  2  1  0  0  0  0 
  2  3  1  0  0  0  0 
  3  4  1  0  0  0  0 
  3  5  1  0  0  0  0 
  4  6  1  0  0  0  0 
  5  7  2  0  0  0  0 
  5  8  1  0  0  0  0 
  7  9  1  0  0  0  0 
 10  8  2  0  0  0  0 
  9 11  2  0  0  0  0 
 11 10  1  0  0  0  0 
M  END
> <Name>
Benzenamine, N,N-diethyl-

> <Source>
DSSTox2DMolFile

> <Tox>
3.660

> <CAS>
91-66-7

$$$$

  CDK

 12 13  0  0  0  0  0  0  0  0999 V2000
    1.9961   -0.0000    0.0000 C   0  0  0  0  0  0  0  0  0  0  0  0
    2.6615   -1.1511    0.0000 C   0  0  0  0  0  0  0  0  0  0  0  0
    0.6654   -0.0000    0.0000 C   0  0  0  0  0  0  0  0  0  0  0  0
    1.9961   -2.3022    0.0000 C   0  0  0  0  0  0  0  0  0  0  0  0
    3.9922   -1.1511    0.0000 C   0  0  0  0  0  0  0  0  0  0  0  0
    0.0000   -1.1511    0.0000 C   0  0  0  0  0  0  0  0  0  0  0  0
    0.6654   -2.3022    0.0000 C   0  0  0  0  0  0  0  0  0  0  0  0
    4.6575   -0.0000    0.0000 C   0  0  0  0  0  0  0  0  0  0  0  0
    4.6575   -2.3022    0.0000 C   0  0  0  0  0  0  0  0  0  0  0  0
    5.9883   -0.0000    0.0000 C   0  0  0  0  0  0  0  0  0  0  0  0
    5.9883   -2.3022    0.0000 C   0  0  0  0  0  0  0  0  0  0  0  0
    6.6536   -1.1511    0.0000 C   0  0  0  0  0  0  0  0  0  0  0  0
  1  2  2  0  0  0  0 
  1  3  1  0  0  0  0 
  2  4  1  0  0  0  0 
  2  5  1  0  0  0  0 
  6  3  2  0  0  0  0 
  4  7  2  0  0  0  0 
  5  8  2  0  0  0  0 
  5  9  1  0  0  0  0 
  7  6  1  0  0  0  0 
  8 10  1  0  0  0  0 
 11  9  2  0  0  0  0 
 10 12  2  0  0  0  0 
 12 11  1  0  0  0  0 
M  END
> <Name>
1,1'-Biphenyl

> <Source>
DSSTox2DMolFile

> <Tox>
4.050

> <CAS>
92-52-4

$$$$

  CDK

 13 14  0  0  0  0  0  0  0  0999 V2000
    0.0000   -1.1562    0.0000 O   0  0  0  0  0  0  0  0  0  0  0  0
    1.3316   -1.1562    0.0000 C   0  0  0  0  0  0  0  0  0  0  0  0
    1.9935   -0.0000    0.0000 C   0  0  0  0  0  0  0  0  0  0  0  0
    1.9935   -2.3044    0.0000 C   0  0  0  0  0  0  0  0  0  0  0  0
    3.3251   -0.0000    0.0000 C   0  0  0  0  0  0  0  0  0  0  0  0
    3.3251   -2.3044    0.0000 C   0  0  0  0  0  0  0  0  0  0  0  0
    3.9869   -1.1562    0.0000 C   0  0  0  0  0  0  0  0  0  0  0  0
    5.3186   -1.1562    0.0000 C   0  0  0  0  0  0  0  0  0  0  0  0
    5.9804   -0.0000    0.0000 C   0  0  0  0  0  0  0  0  0  0  0  0
    5.9804   -2.3044    0.0000 C   0  0  0  0  0  0  0  0  0  0  0  0
    7.3120   -0.0000    0.0000 C   0  0  0  0  0  0  0  0  0  0  0  0
    7.3120   -2.3044    0.0000 C   0  0  0  0  0  0  0  0  0  0  0  0
    7.9739   -1.1562    0.0000 C   0  0  0  0  0  0  0  0  0  0  0  0
  1  2  1  0  0  0  0 
  2  3  2  0  0  0  0 
  2  4  1  0  0  0  0 
  3  5  1  0  0  0  0 
  6  4  2  0  0  0  0 
  5  7  2  0  0  0  0 
  7  6  1  0  0  0  0 
  7  8  1  0  0  0  0 
  8  9  2  0  0  0  0 
  8 10  1  0  0  0  0 
  9 11  1  0  0  0  0 
 12 10  2  0  0  0  0 
 11 13  2  0  0  0  0 
 13 12  1  0  0  0  0 
M  END
> <Name>
(1,1'-Biphenyl)-4-ol

> <Source>
DSSTox2DMolFile

> <Tox>
4.390

> <CAS>
92-69-3

$$$$

  CDK

 14 16  0  0  0  0  0  0  0  0999 V2000
    0.0000    1.3770    0.0000 N   0  0  0  0  0  0  0  0  0  0  0  0
    1.1587    0.6993   -0.0001 C   0  0  0  0  0  0  0  0  0  0  0  0
   -1.1588    0.6993    0.0003 C   0  0  0  0  0  0  0  0  0  0  0  0
    1.1588   -0.6993    0.0003 C   0  0  0  0  0  0  0  0  0  0  0  0
    2.3750    1.3792   -0.0004 C   0  0  0  0  0  0  0  0  0  0  0  0
   -1.1588   -0.6993    0.0000 C   0  0  0  0  0  0  0  0  0  0  0  0
   -2.3750    1.3793    0.0005 C   0  0  0  0  0  0  0  0  0  0  0  0
    0.0000   -1.3770    0.0002 N   0  0  0  0  0  0  0  0  0  0  0  0
    2.3751   -1.3792    0.0005 C   0  0  0  0  0  0  0  0  0  0  0  0
    3.5882    0.6934   -0.0005 C   0  0  0  0  0  0  0  0  0  0  0  0
   -2.3750   -1.3792   -0.0006 C   0  0  0  0  0  0  0  0  0  0  0  0
   -3.5882    0.6934    0.0003 C   0  0  0  0  0  0  0  0  0  0  0  0
    3.5882   -0.6934    0.0001 C   0  0  0  0  0  0  0  0  0  0  0  0
   -3.5882   -0.6935   -0.0006 C   0  0  0  0  0  0  0  0  0  0  0  0
  1  2  2  0  0  0  0 
  1  3  1  0  0  0  0 
  2  4  1  0  0  0  0 
  2  5  1  0  0  0  0 
  3  6  1  0  0  0  0 
  3  7  2  0  0  0  0 
  8  4  2  0  0  0  0 
  4  9  1  0  0  0  0 
  5 10  2  0  0  0  0 
  8  6  1  0  0  0  0 
  6 11  2  0  0  0  0 
  7 12  1  0  0  0  0 
  9 13  2  0  0  0  0 
 10 13  1  0  0  0  0 
 11 14  1  0  0  0  0 
 12 14  2  0  0  0  0 
M  END
> <Name>
phenazine

> <Source>
Chemidplus3DMolFile

> <Tox>
4.400

> <CAS>
92-82-0

$$$$

  CDK

 10 10  0  0  0  0  0  0  0  0999 V2000
    1.4001    0.3042   -0.5183 C   0  0  0  0  0  0  0  0  0  0  0  0
    2.2337   -0.2430    0.6526 C   0  0  0  0  0  0  0  0  0  0  0  0
    1.7729    1.6618   -0.6862 O   0  0  0  0  0  0  0  0  0  0  0  0
   -0.0807    0.1439   -0.2511 C   0  0  0  0  0  0  0  0  0  0  0  0
    2.2558   -1.7544    0.6543 C   0  0  0  0  0  0  0  0  0  0  0  0
   -0.7983   -0.8530   -0.9126 C   0  0  0  0  0  0  0  0  0  0  0  0
   -0.7345    0.9733    0.6609 C   0  0  0  0  0  0  0  0  0  0  0  0
   -2.1575   -1.0143   -0.6674 C   0  0  0  0  0  0  0  0  0  0  0  0
   -2.0944    0.8117    0.9007 C   0  0  0  0  0  0  0  0  0  0  0  0
   -2.8072   -0.1815    0.2372 C   0  0  0  0  0  0  0  0  0  0  0  0
  1  2  1  0  0  0  0 
  1  3  1  0  0  0  0 
  1  4  1  0  0  0  0 
  2  5  1  0  0  0  0 
  4  6  1  0  0  0  0 
  4  7  2  0  0  0  0 
  6  8  2  0  0  0  0 
  9  7  1  0  0  0  0 
  8 10  1  0  0  0  0 
 10  9  2  0  0  0  0 
M  END
> <Name>
Benzenemethanol, alpha-ethyl- (9CI)

> <Source>
DougDB3DMolFile

> <Tox>
2.570

> <CAS>
93-54-9

$$$$

  CDK

 10 10  0  0  0  0  0  0  0  0999 V2000
    1.0084    0.0000    0.0000 C   0  0  0  0  0  0  0  0  0  0  0  0
    1.5126    0.8571    0.0000 C   0  0  0  0  0  0  0  0  0  0  0  0
    0.0000    0.0000    0.0000 C   0  0  0  0  0  0  0  0  0  0  0  0
    1.0084    1.7142    0.0000 O   0  0  0  0  0  0  0  0  0  0  0  0
    2.5209    0.8571    0.0000 C   0  0  0  0  0  0  0  0  0  0  0  0
    3.0251    1.7142    0.0000 C   0  0  0  0  0  0  0  0  0  0  0  0
    3.0251    0.0000    0.0000 C   0  0  0  0  0  0  0  0  0  0  0  0
    4.0335    1.7142    0.0000 C   0  0  0  0  0  0  0  0  0  0  0  0
    4.0335    0.0000    0.0000 C   0  0  0  0  0  0  0  0  0  0  0  0
    4.5377    0.8571    0.0000 C   0  0  0  0  0  0  0  0  0  0  0  0
  1  2  1  0  0  0  0 
  1  3  1  0  0  0  0 
  2  4  2  0  0  0  0 
  2  5  1  0  0  0  0 
  6  5  2  0  0  0  0 
  5  7  1  0  0  0  0 
  8  6  1  0  0  0  0 
  7  9  2  0  0  0  0 
 10  8  2  0  0  0  0 
  9 10  1  0  0  0  0 
M  END
> <Name>
1-Propanone, 1-phenyl-

> <Source>
NIST2DMolFile

> <Tox>
2.930

> <CAS>
93-55-0

$$$$

  CDK

 10 10  0  0  0  0  0  0  0  0999 V2000
    3.9889   -2.3040    0.0000 C   0  0  0  0  0  0  0  0  0  0  0  0
    4.6545   -3.4536    0.0000 O   0  0  0  0  0  0  0  0  0  0  0  0
    4.6545   -1.1497    0.0000 O   0  0  0  0  0  0  0  0  0  0  0  0
    2.6577   -2.3040    0.0000 C   0  0  0  0  0  0  0  0  0  0  0  0
    3.9889   -0.0000    0.0000 C   0  0  0  0  0  0  0  0  0  0  0  0
    1.9968   -3.4536    0.0000 C   0  0  0  0  0  0  0  0  0  0  0  0
    1.9968   -1.1497    0.0000 C   0  0  0  0  0  0  0  0  0  0  0  0
    0.6656   -3.4536    0.0000 C   0  0  0  0  0  0  0  0  0  0  0  0
    0.6656   -1.1497    0.0000 C   0  0  0  0  0  0  0  0  0  0  0  0
    0.0000   -2.3040    0.0000 C   0  0  0  0  0  0  0  0  0  0  0  0
  1  2  2  0  0  0  0 
  1  3  1  0  0  0  0 
  1  4  1  0  0  0  0 
  3  5  1  0  0  0  0 
  4  6  2  0  0  0  0 
  4  7  1  0  0  0  0 
  6  8  1  0  0  0  0 
  9  7  2  0  0  0  0 
  8 10  2  0  0  0  0 
 10  9  1  0  0  0  0 
M  END
> <Name>
Benzoic acid, methyl ester

> <Source>
DSSTox2DMolFile

> <Tox>
3.230

> <CAS>
93-58-3

$$$$

  CDK

 11 11  0  0  0  0  0  0  0  0999 V2000
   -0.7433    0.6990   -0.0003 C   0  0  0  0  0  0  0  0  0  0  0  0
    0.6597    0.2046   -0.0001 C   0  0  0  0  0  0  0  0  0  0  0  0
   -1.1090    1.8608   -0.0009 O   0  0  0  0  0  0  0  0  0  0  0  0
   -1.6902   -0.2836    0.0003 O   0  0  0  0  0  0  0  0  0  0  0  0
    1.6948    1.1450    0.0005 C   0  0  0  0  0  0  0  0  0  0  0  0
    0.9651   -1.1590   -0.0006 C   0  0  0  0  0  0  0  0  0  0  0  0
   -3.0672    0.0999    0.0004 C   0  0  0  0  0  0  0  0  0  0  0  0
    3.0192    0.7230    0.0007 C   0  0  0  0  0  0  0  0  0  0  0  0
    2.2926   -1.5726   -0.0005 C   0  0  0  0  0  0  0  0  0  0  0  0
   -3.8683   -1.1880    0.0003 C   0  0  0  0  0  0  0  0  0  0  0  0
    3.3198   -0.6349    0.0002 C   0  0  0  0  0  0  0  0  0  0  0  0
  1  2  1  0  0  0  0 
  1  3  2  0  0  0  0 
  1  4  1  0  0  0  0 
  2  5  1  0  0  0  0 
  2  6  2  0  0  0  0 
  4  7  1  0  0  0  0 
  5  8  2  0  0  0  0 
  9  6  1  0  0  0  0 
  7 10  1  0  0  0  0 
  8 11  1  0  0  0  0 
 11  9  2  0  0  0  0 
M  END
> <Name>
Benzoic acid, ethyl ester

> <Source>
DougDB3DMolFile

> <Tox>
2.990

> <CAS>
93-89-0

$$$$

  CDK

 12 12  0  0  0  0  0  0  0  0999 V2000
    1.9955   -3.4588    0.0000 C   0  0  0  0  0  0  0  0  0  0  0  0
    0.6652   -3.4588    0.0000 C   0  0  0  0  0  0  0  0  0  0  0  0
    2.6606   -2.3081    0.0000 C   0  0  0  0  0  0  0  0  0  0  0  0
    0.0000   -2.3081    0.0000 C   0  0  0  0  0  0  0  0  0  0  0  0
    1.9955   -1.1574    0.0000 C   0  0  0  0  0  0  0  0  0  0  0  0
    3.9909   -2.3081    0.0000 C   0  0  0  0  0  0  0  0  0  0  0  0
    0.6652   -1.1574    0.0000 C   0  0  0  0  0  0  0  0  0  0  0  0
    4.6561   -3.4588    0.0000 O   0  0  0  0  0  0  0  0  0  0  0  0
    4.6561   -1.1574    0.0000 C   0  0  0  0  0  0  0  0  0  0  0  0
    5.9864   -1.1574    0.0000 C   0  0  0  0  0  0  0  0  0  0  0  0
    6.6515   -0.0000    0.0000 O   0  0  0  0  0  0  0  0  0  0  0  0
    6.6515   -2.3081    0.0000 C   0  0  0  0  0  0  0  0  0  0  0  0
  1  2  2  0  0  0  0 
  1  3  1  0  0  0  0 
  2  4  1  0  0  0  0 
  5  3  2  0  0  0  0 
  3  6  1  0  0  0  0 
  4  7  2  0  0  0  0 
  7  5  1  0  0  0  0 
  6  8  2  0  0  0  0 
  6  9  1  0  0  0  0 
  9 10  1  0  0  0  0 
 10 11  2  0  0  0  0 
 10 12  1  0  0  0  0 
M  END
> <Name>
1,3-Butanedione, 1-phenyl-

> <Source>
DSSTox2DMolFile

> <Tox>
3.570

> <CAS>
93-91-4

$$$$

  CDK

 15 16  0  0  0  0  0  0  0  0999 V2000
    3.4635    1.4844    0.0000 O   0  0  0  0  0  0  0  0  0  0  0  0
    2.5729    1.9792    0.0000 C   0  0  0  0  0  0  0  0  0  0  0  0
    4.3047    1.9297    0.0000 C   0  0  0  0  0  0  0  0  0  0  0  0
    2.5729    2.9687    0.0000 O   0  0  0  0  0  0  0  0  0  0  0  0
    1.7318    1.5338    0.0000 C   0  0  0  0  0  0  0  0  0  0  0  0
    4.3047    2.9687    0.0000 C   0  0  0  0  0  0  0  0  0  0  0  0
    5.1458    1.4349    0.0000 C   0  0  0  0  0  0  0  0  0  0  0  0
    0.8906    2.0286    0.0000 C   0  0  0  0  0  0  0  0  0  0  0  0
    1.7318    0.4948    0.0000 C   0  0  0  0  0  0  0  0  0  0  0  0
    5.1953    3.4635    0.0000 C   0  0  0  0  0  0  0  0  0  0  0  0
    6.0364    1.9297    0.0000 C   0  0  0  0  0  0  0  0  0  0  0  0
    0.0000    1.5338    0.0000 C   0  0  0  0  0  0  0  0  0  0  0  0
    0.8411    0.0000    0.0000 C   0  0  0  0  0  0  0  0  0  0  0  0
    6.0364    2.9193    0.0000 C   0  0  0  0  0  0  0  0  0  0  0  0
    0.0000    0.5443    0.0000 C   0  0  0  0  0  0  0  0  0  0  0  0
  1  2  1  0  0  0  0 
  1  3  1  0  0  0  0 
  2  4  2  0  0  0  0 
  2  5  1  0  0  0  0 
  3  6  2  0  0  0  0 
  7  3  1  0  0  0  0 
  8  5  2  0  0  0  0 
  5  9  1  0  0  0  0 
  6 10  1  0  0  0  0 
 11  7  2  0  0  0  0 
 12  8  1  0  0  0  0 
  9 13  2  0  0  0  0 
 10 14  2  0  0  0  0 
 14 11  1  0  0  0  0 
 15 12  2  0  0  0  0 
 13 15  1  0  0  0  0 
M  END
> <Name>
Benzoic acid, phenyl ester

> <Source>
NIST2DMolFile

> <Tox>
4.350

> <CAS>
93-99-2

$$$$

  CDK

 12 11  0  0  0  0  0  0  0  0999 V2000
    0.9112    0.0433    0.4865 C   0  0  0  0  0  0  0  0  0  0  0  0
    0.1395    1.1018   -0.2946 C   0  0  0  0  0  0  0  0  0  0  0  0
    1.0947   -0.0209    1.6838 O   0  0  0  0  0  0  0  0  0  0  0  0
    1.4332   -0.9240   -0.3378 O   0  0  0  0  0  0  0  0  0  0  0  0
   -1.3235    1.1123    0.1541 C   0  0  0  0  0  0  0  0  0  0  0  0
    0.7785    2.4754   -0.0748 C   0  0  0  0  0  0  0  0  0  0  0  0
    2.1688   -1.9690    0.1990 C   0  0  0  0  0  0  0  0  0  0  0  0
   -2.0713   -0.1319   -0.2986 C   0  0  0  0  0  0  0  0  0  0  0  0
    2.1316    2.5925   -0.7399 C   0  0  0  0  0  0  0  0  0  0  0  0
    2.6305   -2.8717   -0.6666 C   0  0  0  0  0  0  0  0  0  0  0  0
   -3.5229   -0.0949    0.1525 C   0  0  0  0  0  0  0  0  0  0  0  0
   -4.2715   -1.3293   -0.2966 C   0  0  0  0  0  0  0  0  0  0  0  0
  1  2  1  0  0  0  0 
  1  3  2  0  0  0  0 
  1  4  1  0  0  0  0 
  2  5  1  0  0  0  0 
  2  6  1  0  0  0  0 
  4  7  1  0  0  0  0 
  5  8  1  0  0  0  0 
  6  9  1  0  0  0  0 
  7 10  2  0  0  0  0 
  8 11  1  0  0  0  0 
 11 12  1  0  0  0  0 
M  END
> <Name>
Hexanoic acid, 2-ethyl-, ethenyl ester

> <Source>
DougDB3DMolFile

> <Tox>
4.046

> <CAS>
94-04-2

$$$$

  CDK

 12 12  0  0  0  0  0  0  0  0999 V2000
    3.0133    1.7365    0.0000 C   0  0  0  0  0  0  0  0  0  0  0  0
    2.0429    1.7365    0.0000 C   0  0  0  0  0  0  0  0  0  0  0  0
    3.5241    2.5537    0.0000 C   0  0  0  0  0  0  0  0  0  0  0  0
    1.5322    2.5537    0.0000 C   0  0  0  0  0  0  0  0  0  0  0  0
    3.0133    3.4730    0.0000 C   0  0  0  0  0  0  0  0  0  0  0  0
    4.5455    2.5537    0.0000 C   0  0  0  0  0  0  0  0  0  0  0  0
    2.0429    3.4730    0.0000 C   0  0  0  0  0  0  0  0  0  0  0  0
    0.5107    2.5537    0.0000 C   0  0  0  0  0  0  0  0  0  0  0  0
    0.0000    1.7365    0.0000 O   0  0  0  0  0  0  0  0  0  0  0  0
    0.0000    3.4219    0.0000 O   0  0  0  0  0  0  0  0  0  0  0  0
    0.5107    0.8682    0.0000 C   0  0  0  0  0  0  0  0  0  0  0  0
    0.0000    0.0000    0.0000 C   0  0  0  0  0  0  0  0  0  0  0  0
  2  1  2  0  0  0  0 
  1  3  1  0  0  0  0 
  4  2  1  0  0  0  0 
  3  5  2  0  0  0  0 
  3  6  1  0  0  0  0 
  7  4  2  0  0  0  0 
  4  8  1  0  0  0  0 
  5  7  1  0  0  0  0 
  8  9  1  0  0  0  0 
  8 10  2  0  0  0  0 
  9 11  1  0  0  0  0 
 11 12  1  0  0  0  0 
M  END
> <Name>
ethyl 4-methylbenzoate

> <Source>
NIST2DMolFile

> <Tox>
3.680

> <CAS>
94-08-6

$$$$

  CDK

 12 12  0  0  0  0  0  0  0  0999 V2000
    3.3259   -3.4535    0.0000 C   0  0  0  0  0  0  0  0  0  0  0  0
    1.9939   -3.4535    0.0000 C   0  0  0  0  0  0  0  0  0  0  0  0
    3.9879   -2.3050    0.0000 C   0  0  0  0  0  0  0  0  0  0  0  0
    1.3320   -2.3050    0.0000 C   0  0  0  0  0  0  0  0  0  0  0  0
    3.3259   -1.1485    0.0000 C   0  0  0  0  0  0  0  0  0  0  0  0
    5.3199   -2.3050    0.0000 C   0  0  0  0  0  0  0  0  0  0  0  0
    0.0000   -2.3050    0.0000 N   0  0  0  0  0  0  0  0  0  0  0  0
    1.9939   -1.1485    0.0000 C   0  0  0  0  0  0  0  0  0  0  0  0
    5.9818   -3.4535    0.0000 O   0  0  0  0  0  0  0  0  0  0  0  0
    5.9818   -1.1485    0.0000 O   0  0  0  0  0  0  0  0  0  0  0  0
    7.3138   -1.1485    0.0000 C   0  0  0  0  0  0  0  0  0  0  0  0
    7.9758   -0.0000    0.0000 C   0  0  0  0  0  0  0  0  0  0  0  0
  1  2  2  0  0  0  0 
  1  3  1  0  0  0  0 
  2  4  1  0  0  0  0 
  5  3  2  0  0  0  0 
  3  6  1  0  0  0  0 
  4  7  1  0  0  0  0 
  4  8  2  0  0  0  0 
  8  5  1  0  0  0  0 
  6  9  2  0  0  0  0 
  6 10  1  0  0  0  0 
 10 11  1  0  0  0  0 
 11 12  1  0  0  0  0 
M  END
> <Name>
Benzoic acid, 4-amino-, ethyl ester

> <Source>
DSSTox2DMolFile

> <Tox>
3.700

> <CAS>
94-09-7

$$$$

  CDK

 17 18  0  0  0  0  0  0  0  0999 V2000
    4.6004   -2.6628    0.0000 C   0  0  0  0  0  0  0  0  0  0  0  0
    5.7608   -1.9997    0.0000 O   0  0  0  0  0  0  0  0  0  0  0  0
    3.4503   -1.9997    0.0000 C   0  0  0  0  0  0  0  0  0  0  0  0
    4.6004   -3.9891    0.0000 O   0  0  0  0  0  0  0  0  0  0  0  0
    6.9109   -2.6628    0.0000 C   0  0  0  0  0  0  0  0  0  0  0  0
    2.3002   -2.6628    0.0000 C   0  0  0  0  0  0  0  0  0  0  0  0
    3.4503   -0.6631    0.0000 C   0  0  0  0  0  0  0  0  0  0  0  0
    8.0610   -1.9997    0.0000 C   0  0  0  0  0  0  0  0  0  0  0  0
    1.1501   -1.9997    0.0000 C   0  0  0  0  0  0  0  0  0  0  0  0
    2.3002   -0.0000    0.0000 C   0  0  0  0  0  0  0  0  0  0  0  0
    8.0610   -0.6631    0.0000 C   0  0  0  0  0  0  0  0  0  0  0  0
    9.2111   -2.6628    0.0000 C   0  0  0  0  0  0  0  0  0  0  0  0
    1.1501   -0.6631    0.0000 C   0  0  0  0  0  0  0  0  0  0  0  0
    9.2111   -0.0000    0.0000 C   0  0  0  0  0  0  0  0  0  0  0  0
   10.3612   -1.9997    0.0000 C   0  0  0  0  0  0  0  0  0  0  0  0
    0.0000   -0.0000    0.0000 O   0  0  0  0  0  0  0  0  0  0  0  0
   10.3612   -0.6631    0.0000 C   0  0  0  0  0  0  0  0  0  0  0  0
  1  2  1  0  0  0  0 
  1  3  1  0  0  0  0 
  1  4  2  0  0  0  0 
  2  5  1  0  0  0  0 
  3  6  1  0  0  0  0 
  3  7  2  0  0  0  0 
  5  8  1  0  0  0  0 
  6  9  2  0  0  0  0 
 10  7  1  0  0  0  0 
  8 11  2  0  0  0  0 
  8 12  1  0  0  0  0 
  9 13  1  0  0  0  0 
 13 10  2  0  0  0  0 
 11 14  1  0  0  0  0 
 15 12  2  0  0  0  0 
 13 16  1  0  0  0  0 
 14 17  2  0  0  0  0 
 17 15  1  0  0  0  0 
M  END
> <Name>
benzyl 4-hydroxybenzoate

> <Source>
DSSTox2DMolFile

> <Tox>
4.550

> <CAS>
94-18-8

$$$$

  CDK

 14 14  0  0  0  0  0  0  0  0999 V2000
    3.9910   -0.0000    0.0000 O   0  0  0  0  0  0  0  0  0  0  0  0
    4.6595   -1.1574    0.0000 C   0  0  0  0  0  0  0  0  0  0  0  0
    5.9865   -1.1574    0.0000 C   0  0  0  0  0  0  0  0  0  0  0  0
    3.9910   -2.3048    0.0000 O   0  0  0  0  0  0  0  0  0  0  0  0
    6.6549   -0.0000    0.0000 C   0  0  0  0  0  0  0  0  0  0  0  0
    6.6549   -2.3048    0.0000 C   0  0  0  0  0  0  0  0  0  0  0  0
    2.6640   -2.3048    0.0000 C   0  0  0  0  0  0  0  0  0  0  0  0
    7.9819   -0.0000    0.0000 C   0  0  0  0  0  0  0  0  0  0  0  0
    7.9819   -2.3048    0.0000 C   0  0  0  0  0  0  0  0  0  0  0  0
    1.9955   -1.1574    0.0000 C   0  0  0  0  0  0  0  0  0  0  0  0
    8.6504   -1.1574    0.0000 C   0  0  0  0  0  0  0  0  0  0  0  0
    0.6685   -1.1574    0.0000 C   0  0  0  0  0  0  0  0  0  0  0  0
    9.9774   -1.1574    0.0000 O   0  0  0  0  0  0  0  0  0  0  0  0
    0.0000   -0.0000    0.0000 C   0  0  0  0  0  0  0  0  0  0  0  0
  1  2  2  0  0  0  0 
  2  3  1  0  0  0  0 
  2  4  1  0  0  0  0 
  3  5  2  0  0  0  0 
  3  6  1  0  0  0  0 
  4  7  1  0  0  0  0 
  5  8  1  0  0  0  0 
  9  6  2  0  0  0  0 
  7 10  1  0  0  0  0 
  8 11  2  0  0  0  0 
 11  9  1  0  0  0  0 
 10 12  1  0  0  0  0 
 11 13  1  0  0  0  0 
 12 14  1  0  0  0  0 
M  END
> <Name>
Benzoic acid, 4-hydroxy-, butyl ester

> <Source>
DSSTox2DMolFile

> <Tox>
4.330

> <CAS>
94-26-8

$$$$

  CDK

 13 13  0  0  0  0  0  0  0  0999 V2000
    2.6411    1.5745    0.0000 C   0  0  0  0  0  0  0  0  0  0  0  0
    2.6411    2.4887    0.0000 C   0  0  0  0  0  0  0  0  0  0  0  0
    1.7777    1.0158    0.0000 C   0  0  0  0  0  0  0  0  0  0  0  0
    1.7777    2.9966    0.0000 C   0  0  0  0  0  0  0  0  0  0  0  0
    3.5045    2.9966    0.0000 C   0  0  0  0  0  0  0  0  0  0  0  0
    0.9142    1.5745    0.0000 C   0  0  0  0  0  0  0  0  0  0  0  0
    0.9142    2.4887    0.0000 C   0  0  0  0  0  0  0  0  0  0  0  0
    3.5045    4.0632    0.0000 O   0  0  0  0  0  0  0  0  0  0  0  0
    4.3680    2.5395    0.0000 O   0  0  0  0  0  0  0  0  0  0  0  0
    0.0000    1.0158    0.0000 O   0  0  0  0  0  0  0  0  0  0  0  0
    5.2314    2.9966    0.0000 C   0  0  0  0  0  0  0  0  0  0  0  0
    0.0000    0.0000    0.0000 C   0  0  0  0  0  0  0  0  0  0  0  0
    6.0948    2.4887    0.0000 C   0  0  0  0  0  0  0  0  0  0  0  0
  2  1  2  0  0  0  0 
  1  3  1  0  0  0  0 
  4  2  1  0  0  0  0 
  2  5  1  0  0  0  0 
  3  6  2  0  0  0  0 
  7  4  2  0  0  0  0 
  5  8  2  0  0  0  0 
  5  9  1  0  0  0  0 
  6  7  1  0  0  0  0 
  6 10  1  0  0  0  0 
  9 11  1  0  0  0  0 
 10 12  1  0  0  0  0 
 11 13  1  0  0  0  0 
M  END
> <Name>
Benzoic acid, 4-methoxy-, ethyl ester

> <Source>
NIST2DMolFile

> <Tox>
3.770

> <CAS>
94-30-4

$$$$

  CDK

 10 10  0  0  0  0  0  0  0  0999 V2000
    1.3259    0.8606    0.0000 C   0  0  0  0  0  0  0  0  0  0  0  0
   -0.0864    0.4888    0.0000 C   0  0  0  0  0  0  0  0  0  0  0  0
    2.2324   -0.0753    0.0000 N   0  0  0  0  0  0  0  0  0  0  0  0
   -0.5357   -0.8487    0.0000 C   0  0  0  0  0  0  0  0  0  0  0  0
   -1.0402    1.5177    0.0000 C   0  0  0  0  0  0  0  0  0  0  0  0
    3.5681    0.3560    0.0000 O   0  0  0  0  0  0  0  0  0  0  0  0
    0.2884   -1.9264    0.0000 O   0  0  0  0  0  0  0  0  0  0  0  0
   -1.9151   -1.1358    0.0000 C   0  0  0  0  0  0  0  0  0  0  0  0
   -2.3933    1.2300    0.0000 C   0  0  0  0  0  0  0  0  0  0  0  0
   -2.8283   -0.0977    0.0000 C   0  0  0  0  0  0  0  0  0  0  0  0
  1  2  1  0  0  0  0 
  1  3  2  0  0  0  0 
  2  4  1  0  0  0  0 
  2  5  2  0  0  0  0 
  3  6  1  0  0  0  0 
  4  7  1  0  0  0  0 
  4  8  2  0  0  0  0 
  9  5  1  0  0  0  0 
  8 10  1  0  0  0  0 
 10  9  2  0  0  0  0 
M  END
> <Name>
Benzaldehyde, 2-hydroxy-, oxime

> <Source>
DougDB3DMolFile

> <Tox>
3.250

> <CAS>
94-67-7

$$$$

  CDK

 10 10  0  0  0  0  0  0  0  0999 V2000
    1.9929   -2.3040    0.0000 C   0  0  0  0  0  0  0  0  0  0  0  0
    0.6643   -2.3040    0.0000 C   0  0  0  0  0  0  0  0  0  0  0  0
    2.6571   -1.1490    0.0000 C   0  0  0  0  0  0  0  0  0  0  0  0
    2.6571   -3.4531    0.0000 C   0  0  0  0  0  0  0  0  0  0  0  0
    0.0000   -3.4531    0.0000 O   0  0  0  0  0  0  0  0  0  0  0  0
    1.9929   -0.0000    0.0000 O   0  0  0  0  0  0  0  0  0  0  0  0
    3.9917   -1.1490    0.0000 C   0  0  0  0  0  0  0  0  0  0  0  0
    3.9917   -3.4531    0.0000 C   0  0  0  0  0  0  0  0  0  0  0  0
    4.6560   -2.3040    0.0000 C   0  0  0  0  0  0  0  0  0  0  0  0
    5.9845   -2.3040    0.0000 O   0  0  0  0  0  0  0  0  0  0  0  0
  1  2  1  0  0  0  0 
  1  3  2  0  0  0  0 
  1  4  1  0  0  0  0 
  2  5  2  0  0  0  0 
  3  6  1  0  0  0  0 
  3  7  1  0  0  0  0 
  8  4  2  0  0  0  0 
  7  9  2  0  0  0  0 
  9  8  1  0  0  0  0 
  9 10  1  0  0  0  0 
M  END
> <Name>
Benzaldehyde, 2,4-dihydroxy-

> <Source>
DSSTox2DMolFile

> <Tox>
3.515

> <CAS>
95-01-2

$$$$

  CDK

  9 10  0  0  0  0  0  0  0  0999 V2000
    4.3506   -0.6613    0.0000 C   0  0  0  0  0  0  0  0  0  0  0  0
    4.3506   -1.9926    0.0000 C   0  0  0  0  0  0  0  0  0  0  0  0
    3.1977   -0.0000    0.0000 C   0  0  0  0  0  0  0  0  0  0  0  0
    3.1977   -2.6582    0.0000 C   0  0  0  0  0  0  0  0  0  0  0  0
    2.0448   -0.6613    0.0000 C   0  0  0  0  0  0  0  0  0  0  0  0
    2.0448   -1.9926    0.0000 C   0  0  0  0  0  0  0  0  0  0  0  0
    0.7831   -0.2523    0.0000 S   0  0  0  0  0  0  0  0  0  0  0  0
    0.7831   -2.4059    0.0000 N   0  0  0  0  0  0  0  0  0  0  0  0
    0.0000   -1.3269    0.0000 C   0  0  0  0  0  0  0  0  0  0  0  0
  1  2  2  0  0  0  0 
  1  3  1  0  0  0  0 
  2  4  1  0  0  0  0 
  5  3  2  0  0  0  0 
  4  6  2  0  0  0  0 
  6  5  1  0  0  0  0 
  7  5  1  0  0  0  0 
  6  8  1  0  0  0  0 
  9  7  1  0  0  0  0 
  8  9  2  0  0  0  0 
M  END
> <Name>
Benzothiazole

> <Source>
DSSTox2DMolFile

> <Tox>
2.970

> <CAS>
95-16-9

$$$$

  CDK

  8  8  0  0  0  0  0  0  0  0999 V2000
    0.0000   -2.3027    0.0000 O   0  0  0  0  0  0  0  0  0  0  0  0
    1.3289   -2.3027    0.0000 C   0  0  0  0  0  0  0  0  0  0  0  0
    1.9954   -1.1533    0.0000 C   0  0  0  0  0  0  0  0  0  0  0  0
    1.9954   -3.4560    0.0000 C   0  0  0  0  0  0  0  0  0  0  0  0
    1.3289   -0.0000    0.0000 C   0  0  0  0  0  0  0  0  0  0  0  0
    3.3243   -1.1533    0.0000 C   0  0  0  0  0  0  0  0  0  0  0  0
    3.3243   -3.4560    0.0000 C   0  0  0  0  0  0  0  0  0  0  0  0
    3.9907   -2.3027    0.0000 C   0  0  0  0  0  0  0  0  0  0  0  0
  1  2  1  0  0  0  0 
  2  3  2  0  0  0  0 
  2  4  1  0  0  0  0 
  3  5  1  0  0  0  0 
  3  6  1  0  0  0  0 
  7  4  2  0  0  0  0 
  6  8  2  0  0  0  0 
  8  7  1  0  0  0  0 
M  END
> <Name>
Phenol, 2-methyl-

> <Source>
DSSTox2DMolFile

> <Tox>
2.710

> <CAS>
95-48-7

$$$$

  CDK

  8  8  0  0  0  0  0  0  0  0999 V2000
    0.0000   -2.3027    0.0000 Cl  0  0  0  0  0  0  0  0  0  0  0  0
    1.3289   -2.3027    0.0000 C   0  0  0  0  0  0  0  0  0  0  0  0
    1.9954   -1.1533    0.0000 C   0  0  0  0  0  0  0  0  0  0  0  0
    1.9954   -3.4560    0.0000 C   0  0  0  0  0  0  0  0  0  0  0  0
    3.3243   -1.1533    0.0000 C   0  0  0  0  0  0  0  0  0  0  0  0
    1.3289   -0.0000    0.0000 Cl  0  0  0  0  0  0  0  0  0  0  0  0
    3.3243   -3.4560    0.0000 C   0  0  0  0  0  0  0  0  0  0  0  0
    3.9907   -2.3027    0.0000 C   0  0  0  0  0  0  0  0  0  0  0  0
  1  2  1  0  0  0  0 
  2  3  2  0  0  0  0 
  2  4  1  0  0  0  0 
  3  5  1  0  0  0  0 
  3  6  1  0  0  0  0 
  7  4  2  0  0  0  0 
  5  8  2  0  0  0  0 
  8  7  1  0  0  0  0 
M  END
> <Name>
Benzene, 1,2-dichloro-

> <Source>
DSSTox2DMolFile

> <Tox>
3.530

> <CAS>
95-50-1

$$$$

  CDK

  8  8  0  0  0  0  0  0  0  0999 V2000
    0.0000   -2.3027    0.0000 N   0  0  0  0  0  0  0  0  0  0  0  0
    1.3289   -2.3027    0.0000 C   0  0  0  0  0  0  0  0  0  0  0  0
    1.9954   -1.1533    0.0000 C   0  0  0  0  0  0  0  0  0  0  0  0
    1.9954   -3.4560    0.0000 C   0  0  0  0  0  0  0  0  0  0  0  0
    1.3289   -0.0000    0.0000 Cl  0  0  0  0  0  0  0  0  0  0  0  0
    3.3243   -1.1533    0.0000 C   0  0  0  0  0  0  0  0  0  0  0  0
    3.3243   -3.4560    0.0000 C   0  0  0  0  0  0  0  0  0  0  0  0
    3.9907   -2.3027    0.0000 C   0  0  0  0  0  0  0  0  0  0  0  0
  1  2  1  0  0  0  0 
  2  3  2  0  0  0  0 
  2  4  1  0  0  0  0 
  3  5  1  0  0  0  0 
  3  6  1  0  0  0  0 
  7  4  2  0  0  0  0 
  6  8  2  0  0  0  0 
  8  7  1  0  0  0  0 
M  END
> <Name>
Benzenamine, 2-chloro-

> <Source>
DSSTox2DMolFile

> <Tox>
2.830

> <CAS>
95-51-2

$$$$

  CDK

  8  8  0  0  0  0  0  0  0  0999 V2000
    0.0000   -2.3027    0.0000 N   0  0  0  0  0  0  0  0  0  0  0  0
    1.3289   -2.3027    0.0000 C   0  0  0  0  0  0  0  0  0  0  0  0
    1.9954   -1.1533    0.0000 C   0  0  0  0  0  0  0  0  0  0  0  0
    1.9954   -3.4560    0.0000 C   0  0  0  0  0  0  0  0  0  0  0  0
    3.3243   -1.1533    0.0000 C   0  0  0  0  0  0  0  0  0  0  0  0
    1.3289   -0.0000    0.0000 C   0  0  0  0  0  0  0  0  0  0  0  0
    3.3243   -3.4560    0.0000 C   0  0  0  0  0  0  0  0  0  0  0  0
    3.9907   -2.3027    0.0000 C   0  0  0  0  0  0  0  0  0  0  0  0
  1  2  1  0  0  0  0 
  2  3  2  0  0  0  0 
  2  4  1  0  0  0  0 
  3  5  1  0  0  0  0 
  3  6  1  0  0  0  0 
  7  4  2  0  0  0  0 
  5  8  2  0  0  0  0 
  8  7  1  0  0  0  0 
M  END
> <Name>
Benzenamine, 2-methyl-

> <Source>
DSSTox2DMolFile

> <Tox>
2.840

> <CAS>
95-53-4

$$$$

  CDK

  8  8  0  0  0  0  0  0  0  0999 V2000
    1.5000    2.6001    0.0000 C   0  0  0  0  0  0  0  0  0  0  0  0
    1.0000    1.7500    0.0000 C   0  0  0  0  0  0  0  0  0  0  0  0
    2.5001    2.6001    0.0000 C   0  0  0  0  0  0  0  0  0  0  0  0
    1.4500    0.9000    0.0000 C   0  0  0  0  0  0  0  0  0  0  0  0
    0.0000    1.7500    0.0000 O   0  0  0  0  0  0  0  0  0  0  0  0
    3.0001    1.7500    0.0000 C   0  0  0  0  0  0  0  0  0  0  0  0
    2.5001    0.9000    0.0000 C   0  0  0  0  0  0  0  0  0  0  0  0
    0.9500    0.0000    0.0000 Br  0  0  0  0  0  0  0  0  0  0  0  0
  1  2  2  0  0  0  0 
  3  1  1  0  0  0  0 
  2  4  1  0  0  0  0 
  2  5  1  0  0  0  0 
  6  3  2  0  0  0  0 
  4  7  2  0  0  0  0 
  4  8  1  0  0  0  0 
  7  6  1  0  0  0  0 
M  END
> <Name>
Phenol, 2-bromo-

> <Source>
NIST2DMolFile

> <Tox>
3.330

> <CAS>
95-56-7

$$$$

  CDK

  9  9  0  0  0  0  0  0  0  0999 V2000
    0.0000   -2.6589    0.0000 C   0  0  0  0  0  0  0  0  0  0  0  0
    1.1520   -1.9953    0.0000 C   0  0  0  0  0  0  0  0  0  0  0  0
    1.1520   -0.6636    0.0000 C   0  0  0  0  0  0  0  0  0  0  0  0
    2.3041   -2.6589    0.0000 C   0  0  0  0  0  0  0  0  0  0  0  0
    2.3041   -0.0000    0.0000 C   0  0  0  0  0  0  0  0  0  0  0  0
    0.0000   -0.0000    0.0000 C   0  0  0  0  0  0  0  0  0  0  0  0
    3.4561   -1.9953    0.0000 C   0  0  0  0  0  0  0  0  0  0  0  0
    3.4561   -0.6636    0.0000 C   0  0  0  0  0  0  0  0  0  0  0  0
    4.6082   -2.6589    0.0000 C   0  0  0  0  0  0  0  0  0  0  0  0
  1  2  1  0  0  0  0 
  2  3  2  0  0  0  0 
  2  4  1  0  0  0  0 
  3  5  1  0  0  0  0 
  3  6  1  0  0  0  0 
  7  4  2  0  0  0  0 
  5  8  2  0  0  0  0 
  8  7  1  0  0  0  0 
  7  9  1  0  0  0  0 
M  END
> <Name>
Benzene, 1,2,4-trimethyl-

> <Source>
DSSTox2DMolFile

> <Tox>
3.780

> <CAS>
95-63-6

$$$$

  CDK

  9  9  0  0  0  0  0  0  0  0999 V2000
    4.6082   -2.6589    0.0000 C   0  0  0  0  0  0  0  0  0  0  0  0
    3.4561   -1.9953    0.0000 C   0  0  0  0  0  0  0  0  0  0  0  0
    2.3041   -2.6589    0.0000 C   0  0  0  0  0  0  0  0  0  0  0  0
    3.4561   -0.6636    0.0000 C   0  0  0  0  0  0  0  0  0  0  0  0
    1.1520   -1.9953    0.0000 C   0  0  0  0  0  0  0  0  0  0  0  0
    2.3041   -0.0000    0.0000 C   0  0  0  0  0  0  0  0  0  0  0  0
    4.6082   -0.0000    0.0000 C   0  0  0  0  0  0  0  0  0  0  0  0
    0.0000   -2.6589    0.0000 N   0  0  0  0  0  0  0  0  0  0  0  0
    1.1520   -0.6636    0.0000 C   0  0  0  0  0  0  0  0  0  0  0  0
  1  2  1  0  0  0  0 
  2  3  2  0  0  0  0 
  2  4  1  0  0  0  0 
  3  5  1  0  0  0  0 
  6  4  2  0  0  0  0 
  4  7  1  0  0  0  0 
  5  8  1  0  0  0  0 
  5  9  2  0  0  0  0 
  9  6  1  0  0  0  0 
M  END
> <Name>
Benzenamine, 3,4-dimethyl-

> <Source>
DSSTox2DMolFile

> <Tox>
2.840

> <CAS>
95-64-7

$$$$

  CDK

  9  9  0  0  0  0  0  0  0  0999 V2000
    2.3151   -1.9965    0.0000 C   0  0  0  0  0  0  0  0  0  0  0  0
    2.3151   -3.3240    0.0000 C   0  0  0  0  0  0  0  0  0  0  0  0
    1.1629   -1.3275    0.0000 C   0  0  0  0  0  0  0  0  0  0  0  0
    1.1629   -3.9825    0.0000 C   0  0  0  0  0  0  0  0  0  0  0  0
    3.4621   -3.9825    0.0000 C   0  0  0  0  0  0  0  0  0  0  0  0
    0.0000   -1.9965    0.0000 C   0  0  0  0  0  0  0  0  0  0  0  0
    1.1629   -0.0000    0.0000 O   0  0  0  0  0  0  0  0  0  0  0  0
    0.0000   -3.3240    0.0000 C   0  0  0  0  0  0  0  0  0  0  0  0
    1.1629   -5.3100    0.0000 C   0  0  0  0  0  0  0  0  0  0  0  0
  1  2  1  0  0  0  0 
  1  3  2  0  0  0  0 
  2  4  2  0  0  0  0 
  2  5  1  0  0  0  0 
  3  6  1  0  0  0  0 
  3  7  1  0  0  0  0 
  4  8  1  0  0  0  0 
  4  9  1  0  0  0  0 
  6  8  2  0  0  0  0 
M  END
> <Name>
Phenol, 3,4-dimethyl-

> <Source>
DSSTox2DMolFile

> <Tox>
3.120

> <CAS>
95-65-8

$$$$

  CDK

  9  9  0  0  0  0  0  0  0  0999 V2000
    0.0000   -2.6589    0.0000 C   0  0  0  0  0  0  0  0  0  0  0  0
    1.1520   -1.9953    0.0000 C   0  0  0  0  0  0  0  0  0  0  0  0
    1.1520   -0.6636    0.0000 C   0  0  0  0  0  0  0  0  0  0  0  0
    2.3041   -2.6589    0.0000 C   0  0  0  0  0  0  0  0  0  0  0  0
    2.3041   -0.0000    0.0000 C   0  0  0  0  0  0  0  0  0  0  0  0
    0.0000   -0.0000    0.0000 O   0  0  0  0  0  0  0  0  0  0  0  0
    3.4561   -1.9953    0.0000 C   0  0  0  0  0  0  0  0  0  0  0  0
    3.4561   -0.6636    0.0000 C   0  0  0  0  0  0  0  0  0  0  0  0
    4.6082   -2.6589    0.0000 O   0  0  0  0  0  0  0  0  0  0  0  0
  1  2  1  0  0  0  0 
  2  3  2  0  0  0  0 
  2  4  1  0  0  0  0 
  3  5  1  0  0  0  0 
  3  6  1  0  0  0  0 
  7  4  2  0  0  0  0 
  5  8  2  0  0  0  0 
  8  7  1  0  0  0  0 
  7  9  1  0  0  0  0 
M  END
> <Name>
1,4-Benzenediol, 2-methyl-

> <Source>
DSSTox2DMolFile

> <Tox>
4.860

> <CAS>
95-71-6

$$$$

  CDK

  9  9  0  0  0  0  0  0  0  0999 V2000
    0.0000   -2.6589    0.0000 Cl  0  0  0  0  0  0  0  0  0  0  0  0
    1.1520   -1.9953    0.0000 C   0  0  0  0  0  0  0  0  0  0  0  0
    1.1520   -0.6636    0.0000 C   0  0  0  0  0  0  0  0  0  0  0  0
    2.3041   -2.6589    0.0000 C   0  0  0  0  0  0  0  0  0  0  0  0
    2.3041   -0.0000    0.0000 C   0  0  0  0  0  0  0  0  0  0  0  0
    0.0000   -0.0000    0.0000 C   0  0  0  0  0  0  0  0  0  0  0  0
    3.4561   -1.9953    0.0000 C   0  0  0  0  0  0  0  0  0  0  0  0
    3.4561   -0.6636    0.0000 C   0  0  0  0  0  0  0  0  0  0  0  0
    4.6082   -2.6589    0.0000 N   0  0  0  0  0  0  0  0  0  0  0  0
  1  2  1  0  0  0  0 
  2  3  2  0  0  0  0 
  2  4  1  0  0  0  0 
  3  5  1  0  0  0  0 
  3  6  1  0  0  0  0 
  7  4  2  0  0  0  0 
  5  8  2  0  0  0  0 
  8  7  1  0  0  0  0 
  7  9  1  0  0  0  0 
M  END
> <Name>
Benzenamine, 3-chloro-4-methyl-

> <Source>
DSSTox2DMolFile

> <Tox>
3.390

> <CAS>
95-74-9

$$$$

  CDK

  9  9  0  0  0  0  0  0  0  0999 V2000
    4.6082   -2.6589    0.0000 N   0  0  0  0  0  0  0  0  0  0  0  0
    3.4561   -1.9953    0.0000 C   0  0  0  0  0  0  0  0  0  0  0  0
    2.3041   -2.6589    0.0000 C   0  0  0  0  0  0  0  0  0  0  0  0
    3.4561   -0.6636    0.0000 C   0  0  0  0  0  0  0  0  0  0  0  0
    1.1520   -1.9953    0.0000 C   0  0  0  0  0  0  0  0  0  0  0  0
    2.3041   -0.0000    0.0000 C   0  0  0  0  0  0  0  0  0  0  0  0
    0.0000   -2.6589    0.0000 Cl  0  0  0  0  0  0  0  0  0  0  0  0
    1.1520   -0.6636    0.0000 C   0  0  0  0  0  0  0  0  0  0  0  0
    0.0000   -0.0000    0.0000 Cl  0  0  0  0  0  0  0  0  0  0  0  0
  1  2  1  0  0  0  0 
  2  3  2  0  0  0  0 
  2  4  1  0  0  0  0 
  3  5  1  0  0  0  0 
  6  4  2  0  0  0  0 
  5  7  1  0  0  0  0 
  5  8  2  0  0  0  0 
  8  6  1  0  0  0  0 
  8  9  1  0  0  0  0 
M  END
> <Name>
Benzenamine, 3,4-dichloro-

> <Source>
DSSTox2DMolFile

> <Tox>
4.370

> <CAS>
95-76-1

$$$$

  CDK

  9  9  0  0  0  0  0  0  0  0999 V2000
    4.6082   -2.6589    0.0000 Cl  0  0  0  0  0  0  0  0  0  0  0  0
    3.4561   -1.9953    0.0000 C   0  0  0  0  0  0  0  0  0  0  0  0
    2.3041   -2.6589    0.0000 C   0  0  0  0  0  0  0  0  0  0  0  0
    3.4561   -0.6636    0.0000 C   0  0  0  0  0  0  0  0  0  0  0  0
    1.1520   -1.9953    0.0000 C   0  0  0  0  0  0  0  0  0  0  0  0
    2.3041   -0.0000    0.0000 C   0  0  0  0  0  0  0  0  0  0  0  0
    4.6082   -0.0000    0.0000 Cl  0  0  0  0  0  0  0  0  0  0  0  0
    0.0000   -2.6589    0.0000 O   0  0  0  0  0  0  0  0  0  0  0  0
    1.1520   -0.6636    0.0000 C   0  0  0  0  0  0  0  0  0  0  0  0
  1  2  1  0  0  0  0 
  2  3  2  0  0  0  0 
  2  4  1  0  0  0  0 
  3  5  1  0  0  0  0 
  6  4  2  0  0  0  0 
  4  7  1  0  0  0  0 
  5  8  1  0  0  0  0 
  5  9  2  0  0  0  0 
  9  6  1  0  0  0  0 
M  END
> <Name>
Phenol, 3,4-dichloro-

> <Source>
DSSTox2DMolFile

> <Tox>
4.750

> <CAS>
95-77-2

$$$$

  CDK

  9  9  0  0  0  0  0  0  0  0999 V2000
    0.0000   -2.6589    0.0000 N   0  0  0  0  0  0  0  0  0  0  0  0
    1.1520   -1.9953    0.0000 C   0  0  0  0  0  0  0  0  0  0  0  0
    1.1520   -0.6636    0.0000 C   0  0  0  0  0  0  0  0  0  0  0  0
    2.3041   -2.6589    0.0000 C   0  0  0  0  0  0  0  0  0  0  0  0
    2.3041   -0.0000    0.0000 C   0  0  0  0  0  0  0  0  0  0  0  0
    0.0000   -0.0000    0.0000 C   0  0  0  0  0  0  0  0  0  0  0  0
    3.4561   -1.9953    0.0000 C   0  0  0  0  0  0  0  0  0  0  0  0
    3.4561   -0.6636    0.0000 C   0  0  0  0  0  0  0  0  0  0  0  0
    4.6082   -2.6589    0.0000 C   0  0  0  0  0  0  0  0  0  0  0  0
  1  2  1  0  0  0  0 
  2  3  2  0  0  0  0 
  2  4  1  0  0  0  0 
  3  5  1  0  0  0  0 
  3  6  1  0  0  0  0 
  7  4  2  0  0  0  0 
  5  8  2  0  0  0  0 
  8  7  1  0  0  0  0 
  7  9  1  0  0  0  0 
M  END
> <Name>
Benzenamine, 2,5-dimethyl-

> <Source>
DSSTox2DMolFile

> <Tox>
2.670

> <CAS>
95-78-3

$$$$

  CDK

  9  9  0  0  0  0  0  0  0  0999 V2000
    4.6082   -2.6589    0.0000 N   0  0  0  0  0  0  0  0  0  0  0  0
    3.4561   -1.9953    0.0000 C   0  0  0  0  0  0  0  0  0  0  0  0
    2.3041   -2.6589    0.0000 C   0  0  0  0  0  0  0  0  0  0  0  0
    3.4561   -0.6636    0.0000 C   0  0  0  0  0  0  0  0  0  0  0  0
    1.1520   -1.9953    0.0000 C   0  0  0  0  0  0  0  0  0  0  0  0
    2.3041   -0.0000    0.0000 C   0  0  0  0  0  0  0  0  0  0  0  0
    4.6082   -0.0000    0.0000 C   0  0  0  0  0  0  0  0  0  0  0  0
    1.1520   -0.6636    0.0000 C   0  0  0  0  0  0  0  0  0  0  0  0
    0.0000   -2.6589    0.0000 Cl  0  0  0  0  0  0  0  0  0  0  0  0
  1  2  1  0  0  0  0 
  2  3  2  0  0  0  0 
  2  4  1  0  0  0  0 
  3  5  1  0  0  0  0 
  6  4  2  0  0  0  0 
  4  7  1  0  0  0  0 
  5  8  2  0  0  0  0 
  5  9  1  0  0  0  0 
  8  6  1  0  0  0  0 
M  END
> <Name>
Benzenamine, 5-chloro-2-methyl-

> <Source>
DSSTox2DMolFile

> <Tox>
3.500

> <CAS>
95-79-4

$$$$

  CDK

  9  9  0  0  0  0  0  0  0  0999 V2000
    0.0000   -2.6589    0.0000 N   0  0  0  0  0  0  0  0  0  0  0  0
    1.1520   -1.9953    0.0000 C   0  0  0  0  0  0  0  0  0  0  0  0
    1.1520   -0.6636    0.0000 C   0  0  0  0  0  0  0  0  0  0  0  0
    2.3041   -2.6589    0.0000 C   0  0  0  0  0  0  0  0  0  0  0  0
    2.3041   -0.0000    0.0000 C   0  0  0  0  0  0  0  0  0  0  0  0
    0.0000   -0.0000    0.0000 C   0  0  0  0  0  0  0  0  0  0  0  0
    3.4561   -1.9953    0.0000 C   0  0  0  0  0  0  0  0  0  0  0  0
    3.4561   -0.6636    0.0000 C   0  0  0  0  0  0  0  0  0  0  0  0
    4.6082   -2.6589    0.0000 N   0  0  0  0  0  0  0  0  0  0  0  0
  1  2  1  0  0  0  0 
  2  3  2  0  0  0  0 
  2  4  1  0  0  0  0 
  3  5  1  0  0  0  0 
  3  6  1  0  0  0  0 
  7  4  2  0  0  0  0 
  5  8  2  0  0  0  0 
  8  7  1  0  0  0  0 
  7  9  1  0  0  0  0 
M  END
> <Name>
1,3-Benzenediamine, 4-methyl-

> <Source>
DSSTox2DMolFile

> <Tox>
2.340

> <CAS>
95-80-7

$$$$

  CDK

  9  9  0  0  0  0  0  0  0  0999 V2000
    0.0000   -2.6589    0.0000 N   0  0  0  0  0  0  0  0  0  0  0  0
    1.1520   -1.9953    0.0000 C   0  0  0  0  0  0  0  0  0  0  0  0
    1.1520   -0.6636    0.0000 C   0  0  0  0  0  0  0  0  0  0  0  0
    2.3041   -2.6589    0.0000 C   0  0  0  0  0  0  0  0  0  0  0  0
    2.3041   -0.0000    0.0000 C   0  0  0  0  0  0  0  0  0  0  0  0
    0.0000   -0.0000    0.0000 Cl  0  0  0  0  0  0  0  0  0  0  0  0
    3.4561   -1.9953    0.0000 C   0  0  0  0  0  0  0  0  0  0  0  0
    3.4561   -0.6636    0.0000 C   0  0  0  0  0  0  0  0  0  0  0  0
    4.6082   -2.6589    0.0000 Cl  0  0  0  0  0  0  0  0  0  0  0  0
  1  2  1  0  0  0  0 
  2  3  2  0  0  0  0 
  2  4  1  0  0  0  0 
  3  5  1  0  0  0  0 
  3  6  1  0  0  0  0 
  7  4  2  0  0  0  0 
  5  8  2  0  0  0  0 
  8  7  1  0  0  0  0 
  7  9  1  0  0  0  0 
M  END
> <Name>
Benzenamine, 2,5-dichloro-

> <Source>
DSSTox2DMolFile

> <Tox>
3.580

> <CAS>
95-82-9

$$$$

  CDK

  9  9  0  0  0  0  0  0  0  0999 V2000
    4.6082   -2.6589    0.0000 N   0  0  0  0  0  0  0  0  0  0  0  0
    3.4561   -1.9953    0.0000 C   0  0  0  0  0  0  0  0  0  0  0  0
    2.3041   -2.6589    0.0000 C   0  0  0  0  0  0  0  0  0  0  0  0
    3.4561   -0.6636    0.0000 C   0  0  0  0  0  0  0  0  0  0  0  0
    1.1520   -1.9953    0.0000 C   0  0  0  0  0  0  0  0  0  0  0  0
    2.3041   -0.0000    0.0000 C   0  0  0  0  0  0  0  0  0  0  0  0
    4.6082   -0.0000    0.0000 O   0  0  0  0  0  0  0  0  0  0  0  0
    0.0000   -2.6589    0.0000 Cl  0  0  0  0  0  0  0  0  0  0  0  0
    1.1520   -0.6636    0.0000 C   0  0  0  0  0  0  0  0  0  0  0  0
  1  2  1  0  0  0  0 
  2  3  2  0  0  0  0 
  2  4  1  0  0  0  0 
  3  5  1  0  0  0  0 
  6  4  2  0  0  0  0 
  4  7  1  0  0  0  0 
  5  8  1  0  0  0  0 
  5  9  2  0  0  0  0 
  9  6  1  0  0  0  0 
M  END
> <Name>
Phenol, 2-amino-4-chloro-

> <Source>
DSSTox2DMolFile

> <Tox>
3.780

> <CAS>
95-85-2

$$$$

  CDK

  9  9  0  0  0  0  0  0  0  0999 V2000
   -2.4724    0.8803   -0.0007 O   0  0  0  0  0  0  0  0  0  0  0  0
   -1.1507    0.5472    0.0001 C   0  0  0  0  0  0  0  0  0  0  0  0
   -0.7491   -0.7886   -0.0005 C   0  0  0  0  0  0  0  0  0  0  0  0
   -0.1946    1.5628    0.0004 C   0  0  0  0  0  0  0  0  0  0  0  0
   -1.7071   -1.8262    0.0008 N   0  0  0  0  0  0  0  0  0  0  0  0
    0.6085   -1.1088   -0.0004 C   0  0  0  0  0  0  0  0  0  0  0  0
    1.1631    1.2426    0.0004 C   0  0  0  0  0  0  0  0  0  0  0  0
    1.5647   -0.0932    0.0001 C   0  0  0  0  0  0  0  0  0  0  0  0
    2.9376   -0.4162   -0.0003 N   0  0  0  0  0  0  0  0  0  0  0  0
  1  2  1  0  0  0  0 
  3  2  2  0  0  0  0 
  2  4  1  0  0  0  0 
  5  3  1  0  0  0  0 
  3  6  1  0  0  0  0 
  7  4  2  0  0  0  0 
  8  6  2  0  0  0  0 
  8  7  1  0  0  0  0 
  9  8  1  0  0  0  0 
M  END
> <Name>
2,4-diaminophenol

> <Source>
Chemidplus3DMolFile

> <Tox>
3.130

> <CAS>
95-86-3

$$$$

  CDK

  9  9  0  0  0  0  0  0  0  0999 V2000
    0.0000   -2.6589    0.0000 O   0  0  0  0  0  0  0  0  0  0  0  0
    1.1520   -1.9953    0.0000 C   0  0  0  0  0  0  0  0  0  0  0  0
    1.1520   -0.6636    0.0000 C   0  0  0  0  0  0  0  0  0  0  0  0
    2.3041   -2.6589    0.0000 C   0  0  0  0  0  0  0  0  0  0  0  0
    2.3041   -0.0000    0.0000 C   0  0  0  0  0  0  0  0  0  0  0  0
    0.0000   -0.0000    0.0000 C   0  0  0  0  0  0  0  0  0  0  0  0
    3.4561   -1.9953    0.0000 C   0  0  0  0  0  0  0  0  0  0  0  0
    3.4561   -0.6636    0.0000 C   0  0  0  0  0  0  0  0  0  0  0  0
    4.6082   -2.6589    0.0000 C   0  0  0  0  0  0  0  0  0  0  0  0
  1  2  1  0  0  0  0 
  2  3  2  0  0  0  0 
  2  4  1  0  0  0  0 
  3  5  1  0  0  0  0 
  3  6  1  0  0  0  0 
  7  4  2  0  0  0  0 
  5  8  2  0  0  0  0 
  8  7  1  0  0  0  0 
  7  9  1  0  0  0  0 
M  END
> <Name>
Phenol, 2,5-dimethyl-

> <Source>
DSSTox2DMolFile

> <Tox>
3.140

> <CAS>
95-87-4

$$$$

  CDK

  9  9  0  0  0  0  0  0  0  0999 V2000
   -1.9801    0.0922    0.0000 C   0  0  0  0  0  0  0  0  0  0  0  0
   -1.2020   -1.0707    0.0000 C   0  0  0  0  0  0  0  0  0  0  0  0
   -1.3931    1.3689    0.0000 C   0  0  0  0  0  0  0  0  0  0  0  0
   -3.3451    0.0643    0.0000 O   0  0  0  0  0  0  0  0  0  0  0  0
    0.1924   -0.9388    0.0000 C   0  0  0  0  0  0  0  0  0  0  0  0
   -0.0117    1.4775    0.0000 C   0  0  0  0  0  0  0  0  0  0  0  0
    0.7841    0.3340    0.0000 C   0  0  0  0  0  0  0  0  0  0  0  0
    0.9049   -2.1011    0.0000 O   0  0  0  0  0  0  0  0  0  0  0  0
    2.4667    0.4931    0.0000 Cl  0  0  0  0  0  0  0  0  0  0  0  0
  1  2  1  0  0  0  0 
  1  3  2  0  0  0  0 
  1  4  1  0  0  0  0 
  2  5  2  0  0  0  0 
  6  3  1  0  0  0  0 
  5  7  1  0  0  0  0 
  5  8  1  0  0  0  0 
  7  6  2  0  0  0  0 
  7  9  1  0  0  0  0 
M  END
> <Name>
1,3-Benzenediol, 4-chloro-

> <Source>
DougDB3DMolFile

> <Tox>
3.130

> <CAS>
95-88-5

$$$$

  CDK

 10 10  0  0  0  0  0  0  0  0999 V2000
    1.3329   -0.0000    0.0000 Cl  0  0  0  0  0  0  0  0  0  0  0  0
    2.0100   -1.1516    0.0000 C   0  0  0  0  0  0  0  0  0  0  0  0
    3.3216   -1.1516    0.0000 C   0  0  0  0  0  0  0  0  0  0  0  0
    1.3329   -2.3086    0.0000 C   0  0  0  0  0  0  0  0  0  0  0  0
    3.9987   -2.3086    0.0000 C   0  0  0  0  0  0  0  0  0  0  0  0
    0.0000   -2.3086    0.0000 Cl  0  0  0  0  0  0  0  0  0  0  0  0
    2.0100   -3.4495    0.0000 C   0  0  0  0  0  0  0  0  0  0  0  0
    5.3316   -2.3086    0.0000 Cl  0  0  0  0  0  0  0  0  0  0  0  0
    3.3216   -3.4495    0.0000 C   0  0  0  0  0  0  0  0  0  0  0  0
    3.9987   -4.6065    0.0000 Cl  0  0  0  0  0  0  0  0  0  0  0  0
  1  2  1  0  0  0  0 
  3  2  1  0  0  0  0 
  2  4  2  0  0  0  0 
  5  3  2  0  0  0  0 
  6  4  1  0  0  0  0 
  7  4  1  0  0  0  0 
  8  5  1  0  0  0  0 
  5  9  1  0  0  0  0 
  9  7  2  0  0  0  0 
 10  9  1  0  0  0  0 
M  END
> <Name>
Benzene, 1,2,4,5-tetrachloro-

> <Source>
DSSTox2DMolFile

> <Tox>
5.000

> <CAS>
95-94-3

$$$$

  CDK

 10 10  0  0  0  0  0  0  0  0999 V2000
    3.4527   -3.3252    0.0000 C   0  0  0  0  0  0  0  0  0  0  0  0
    2.3000   -3.9945    0.0000 C   0  0  0  0  0  0  0  0  0  0  0  0
    3.4527   -1.9866    0.0000 C   0  0  0  0  0  0  0  0  0  0  0  0
    1.1527   -3.3252    0.0000 C   0  0  0  0  0  0  0  0  0  0  0  0
    2.3000   -5.3118    0.0000 Cl  0  0  0  0  0  0  0  0  0  0  0  0
    2.3000   -1.3173    0.0000 C   0  0  0  0  0  0  0  0  0  0  0  0
    4.6054   -1.3173    0.0000 Cl  0  0  0  0  0  0  0  0  0  0  0  0
    1.1527   -1.9866    0.0000 C   0  0  0  0  0  0  0  0  0  0  0  0
    0.0000   -3.9945    0.0000 Cl  0  0  0  0  0  0  0  0  0  0  0  0
    2.3000   -0.0000    0.0000 O   0  0  0  0  0  0  0  0  0  0  0  0
  1  2  2  0  0  0  0 
  1  3  1  0  0  0  0 
  2  4  1  0  0  0  0 
  2  5  1  0  0  0  0 
  3  6  2  0  0  0  0 
  3  7  1  0  0  0  0 
  8  4  2  0  0  0  0 
  4  9  1  0  0  0  0 
  8  6  1  0  0  0  0 
  6 10  1  0  0  0  0 
M  END
> <Name>
Phenol, 2,4,5-trichloro-

> <Source>
DSSTox2DMolFile

> <Tox>
5.100

> <CAS>
95-95-4

$$$$

  CDK

  9  8  0  0  0  0  0  0  0  0999 V2000
   -0.7561    1.6484   -0.0003 O   0  0  0  0  0  0  0  0  0  0  0  0
   -0.8122    0.4253    0.0016 C   0  0  0  0  0  0  0  0  0  0  0  0
    0.3907   -0.4912    0.0074 C   0  0  0  0  0  0  0  0  0  0  0  0
   -2.1916   -0.2029   -0.0043 C   0  0  0  0  0  0  0  0  0  0  0  0
    1.7041    0.2908    0.0302 C   0  0  0  0  0  0  0  0  0  0  0  0
   -3.1598    0.5463   -0.0107 O   0  0  0  0  0  0  0  0  0  0  0  0
   -2.3033   -1.6981    0.0000 C   0  0  0  0  0  0  0  0  0  0  0  0
    2.9102   -0.6468   -0.0036 C   0  0  0  0  0  0  0  0  0  0  0  0
    4.2181    0.1283   -0.0204 C   0  0  0  0  0  0  0  0  0  0  0  0
  1  2  2  0  0  0  0 
  3  2  1  0  0  0  0 
  2  4  1  0  0  0  0 
  5  3  1  0  0  0  0 
  6  4  2  0  0  0  0 
  4  7  1  0  0  0  0 
  5  8  1  0  0  0  0 
  8  9  1  0  0  0  0 
M  END
> <Name>
heptane-2,3-dione

> <Source>
Chemidplus3DMolFile

> <Tox>
3.040

> <CAS>
96-04-8

$$$$

  CDK

  9  8  0  0  0  0  0  0  0  0999 V2000
    1.1530   -0.0000    0.0000 C   0  0  0  0  0  0  0  0  0  0  0  0
    1.1530   -1.3257    0.0000 C   0  0  0  0  0  0  0  0  0  0  0  0
    0.0000   -1.9954    0.0000 C   0  0  0  0  0  0  0  0  0  0  0  0
    2.2992   -1.9954    0.0000 C   0  0  0  0  0  0  0  0  0  0  0  0
    2.2992   -3.3210    0.0000 O   0  0  0  0  0  0  0  0  0  0  0  0
    3.4522   -1.3257    0.0000 O   0  0  0  0  0  0  0  0  0  0  0  0
    4.6053   -1.9954    0.0000 C   0  0  0  0  0  0  0  0  0  0  0  0
    5.7514   -1.3257    0.0000 C   0  0  0  0  0  0  0  0  0  0  0  0
    6.9045   -1.9954    0.0000 C   0  0  0  0  0  0  0  0  0  0  0  0
  1  2  2  0  0  0  0 
  2  3  1  0  0  0  0 
  2  4  1  0  0  0  0 
  4  5  2  0  0  0  0 
  4  6  1  0  0  0  0 
  6  7  1  0  0  0  0 
  7  8  1  0  0  0  0 
  8  9  2  0  0  0  0 
M  END
> <Name>
2-Propenoic acid, 2-methyl-, 2-propenyl ester

> <Source>
DSSTox2DMolFile

> <Tox>
2.320

> <CAS>
96-05-9

$$$$

  CDK

  6  5  0  0  0  0  0  0  0  0999 V2000
    3.3247   -0.0000    0.0000 Br  0  0  0  0  0  0  0  0  0  0  0  0
    1.9948   -0.0000    0.0000 C   0  0  0  0  0  0  0  0  0  0  0  0
    1.3299   -1.1537    0.0000 C   0  0  0  0  0  0  0  0  0  0  0  0
    0.0000   -1.1537    0.0000 Br  0  0  0  0  0  0  0  0  0  0  0  0
    1.9948   -2.3040    0.0000 C   0  0  0  0  0  0  0  0  0  0  0  0
    3.3247   -2.3040    0.0000 O   0  0  0  0  0  0  0  0  0  0  0  0
  1  2  1  0  0  0  0 
  2  3  1  0  0  0  0 
  3  4  1  0  0  0  0 
  3  5  1  0  0  0  0 
  5  6  1  0  0  0  0 
M  END
> <Name>
1-Propanol, 2,3-dibromo-

> <Source>
DSSTox2DMolFile

> <Tox>
2.514

> <CAS>
96-13-9

$$$$

  CDK

  6  5  0  0  0  0  0  0  0  0999 V2000
    0.8944    0.0000    0.0000 C   0  0  0  0  0  0  0  0  0  0  0  0
    1.7391    0.4969    0.0000 C   0  0  0  0  0  0  0  0  0  0  0  0
    0.0000    0.4969    0.0000 C   0  0  0  0  0  0  0  0  0  0  0  0
    2.5838    0.0000    0.0000 C   0  0  0  0  0  0  0  0  0  0  0  0
    1.7391    1.4906    0.0000 C   0  0  0  0  0  0  0  0  0  0  0  0
    3.4781    0.4969    0.0000 N   0  0  0  0  0  0  0  0  0  0  0  0
  1  2  1  0  0  0  0 
  1  3  1  0  0  0  0 
  2  4  1  0  0  0  0 
  2  5  1  0  0  0  0 
  4  6  1  0  0  0  0 
M  END
> <Name>
1-Butanamine, 2-methyl-

> <Source>
NIST2DMolFile

> <Tox>
2.523

> <CAS>
96-15-1

$$$$

  CDK

  6  5  0  0  0  0  0  0  0  0999 V2000
   -2.8548   -0.1725   -0.3510 Br  0  0  0  0  0  0  0  0  0  0  0  0
   -1.2572    0.7620    0.2752 C   0  0  0  0  0  0  0  0  0  0  0  0
   -0.0072    0.0372   -0.2078 C   0  0  0  0  0  0  0  0  0  0  0  0
    0.0365   -1.2575    0.3946 O   0  0  0  0  0  0  0  0  0  0  0  0
    1.2392    0.7992    0.2222 C   0  0  0  0  0  0  0  0  0  0  0  0
    2.8435   -0.1683   -0.3331 Br  0  0  0  0  0  0  0  0  0  0  0  0
  1  2  1  0  0  0  0 
  3  2  1  0  0  0  0 
  4  3  1  0  0  0  0 
  3  5  1  0  0  0  0 
  6  5  1  0  0  0  0 
M  END
> <Name>
1,3-dibromopropan-2-ol

> <Source>
Chemidplus3DMolFile

> <Tox>
3.570

> <CAS>
96-21-9

$$$$

  CDK

  6  5  0  0  0  0  0  0  0  0999 V2000
    3.3247   -0.0000    0.0000 C   0  0  0  0  0  0  0  0  0  0  0  0
    1.9948   -0.0000    0.0000 C   0  0  0  0  0  0  0  0  0  0  0  0
    1.3299   -1.1537    0.0000 C   0  0  0  0  0  0  0  0  0  0  0  0
    0.0000   -1.1537    0.0000 O   0  0  0  0  0  0  0  0  0  0  0  0
    1.9948   -2.3040    0.0000 C   0  0  0  0  0  0  0  0  0  0  0  0
    3.3247   -2.3040    0.0000 C   0  0  0  0  0  0  0  0  0  0  0  0
  1  2  1  0  0  0  0 
  2  3  1  0  0  0  0 
  3  4  2  0  0  0  0 
  3  5  1  0  0  0  0 
  5  6  1  0  0  0  0 
M  END
> <Name>
3-Pentanone

> <Source>
DSSTox2DMolFile

> <Tox>
1.544

> <CAS>
96-22-0

$$$$

  CDK

  6  5  0  0  0  0  0  0  0  0999 V2000
    2.6616   -0.0000    0.0000 O   0  0  0  0  0  0  0  0  0  0  0  0
    1.9952   -1.1492    0.0000 C   0  0  0  0  0  0  0  0  0  0  0  0
    2.6616   -2.3025    0.0000 C   0  0  0  0  0  0  0  0  0  0  0  0
    0.6664   -1.1492    0.0000 C   0  0  0  0  0  0  0  0  0  0  0  0
    3.9905   -2.3025    0.0000 Cl  0  0  0  0  0  0  0  0  0  0  0  0
    0.0000   -2.3025    0.0000 Cl  0  0  0  0  0  0  0  0  0  0  0  0
  1  2  1  0  0  0  0 
  2  3  1  0  0  0  0 
  2  4  1  0  0  0  0 
  3  5  1  0  0  0  0 
  4  6  1  0  0  0  0 
M  END
> <Name>
2-Propanol, 1,3-dichloro-

> <Source>
DSSTox2DMolFile

> <Tox>
2.207

> <CAS>
96-23-1

$$$$

  CDK

  6  5  0  0  0  0  0  0  0  0999 V2000
    3.9905   -2.3025    0.0000 C   0  0  0  0  0  0  0  0  0  0  0  0
    3.3240   -1.1492    0.0000 C   0  0  0  0  0  0  0  0  0  0  0  0
    1.9952   -1.1492    0.0000 C   0  0  0  0  0  0  0  0  0  0  0  0
    1.3288   -0.0000    0.0000 C   0  0  0  0  0  0  0  0  0  0  0  0
    1.3288   -2.3025    0.0000 N   0  0  0  0  0  0  0  0  0  0  0  0
    0.0000   -2.3025    0.0000 O   0  0  0  0  0  0  0  0  0  0  0  0
  1  2  1  0  0  0  0 
  2  3  1  0  0  0  0 
  3  4  1  0  0  0  0 
  3  5  2  0  0  0  0 
  5  6  1  0  0  0  0 
M  END
> <Name>
2-Butanone, oxime

> <Source>
DSSTox2DMolFile

> <Tox>
1.930

> <CAS>
96-29-7

$$$$

  CDK

  6  5  0  0  0  0  0  0  0  0999 V2000
    3.4509   -1.3286    0.0000 C   0  0  0  0  0  0  0  0  0  0  0  0
    2.2983   -1.9981    0.0000 O   0  0  0  0  0  0  0  0  0  0  0  0
    1.1526   -1.3286    0.0000 C   0  0  0  0  0  0  0  0  0  0  0  0
    1.1526   -0.0000    0.0000 O   0  0  0  0  0  0  0  0  0  0  0  0
    0.0000   -1.9981    0.0000 C   0  0  0  0  0  0  0  0  0  0  0  0
    0.0000   -3.3267    0.0000 C   0  0  0  0  0  0  0  0  0  0  0  0
  1  2  1  0  0  0  0 
  2  3  1  0  0  0  0 
  4  3  2  0  0  0  0 
  3  5  1  0  0  0  0 
  5  6  2  0  0  0  0 
M  END
> <Name>
2-Propenoic acid, methyl ester

> <Source>
DSSTox2DMolFile

> <Tox>
3.550

> <CAS>
96-33-3

$$$$

  CDK

  6  5  0  0  0  0  0  0  0  0999 V2000
    0.0000    1.0024    0.0000 Cl  0  0  0  0  0  0  0  0  0  0  0  0
    0.9022    1.5036    0.0000 C   0  0  0  0  0  0  0  0  0  0  0  0
    1.7542    1.0024    0.0000 C   0  0  0  0  0  0  0  0  0  0  0  0
    2.6062    1.5036    0.0000 O   0  0  0  0  0  0  0  0  0  0  0  0
    1.7542    0.0000    0.0000 O   0  0  0  0  0  0  0  0  0  0  0  0
    3.4583    1.0024    0.0000 C   0  0  0  0  0  0  0  0  0  0  0  0
  1  2  1  0  0  0  0 
  2  3  1  0  0  0  0 
  3  4  1  0  0  0  0 
  3  5  2  0  0  0  0 
  4  6  1  0  0  0  0 
M  END
> <Name>
Acetic acid, 2-chloro-, methyl ester

> <Source>
NIST2DMolFile

> <Tox>
3.886

> <CAS>
96-34-4

$$$$

  CDK

  6  6  0  0  0  0  0  0  0  0999 V2000
    0.0000   -1.0738    0.0000 O   0  0  0  0  0  0  0  0  0  0  0  0
    1.3304   -1.0738    0.0000 C   0  0  0  0  0  0  0  0  0  0  0  0
    2.1104   -0.0000    0.0000 C   0  0  0  0  0  0  0  0  0  0  0  0
    2.1104   -2.1509    0.0000 O   0  0  0  0  0  0  0  0  0  0  0  0
    3.3767   -0.4086    0.0000 C   0  0  0  0  0  0  0  0  0  0  0  0
    3.3767   -1.7390    0.0000 C   0  0  0  0  0  0  0  0  0  0  0  0
  1  2  2  0  0  0  0 
  2  3  1  0  0  0  0 
  2  4  1  0  0  0  0 
  3  5  1  0  0  0  0 
  6  4  1  0  0  0  0 
  5  6  1  0  0  0  0 
M  END
> <Name>
2(3H)-Furanone, dihydro-

> <Source>
DSSTox2DMolFile

> <Tox>
1.283

> <CAS>
96-48-0

$$$$

  CDK

 13 13  0  0  0  0  0  0  0  0999 V2000
    5.7563   -0.0000    0.0000 N   0  0  0  0  0  0  0  0  0  0  0  0
    4.6092   -0.6634    0.0000 C   0  0  0  0  0  0  0  0  0  0  0  0
    4.6092   -1.9902    0.0000 C   0  0  0  0  0  0  0  0  0  0  0  0
    3.4552   -0.0000    0.0000 C   0  0  0  0  0  0  0  0  0  0  0  0
    5.7563   -2.6605    0.0000 N   0  0  0  0  0  0  0  0  0  0  0  0
    3.4552   -2.6605    0.0000 C   0  0  0  0  0  0  0  0  0  0  0  0
    2.3011   -0.6634    0.0000 C   0  0  0  0  0  0  0  0  0  0  0  0
    6.9103   -1.9902    0.0000 O   0  0  0  0  0  0  0  0  0  0  0  0
    5.7563   -3.9873    0.0000 O   0  0  0  0  0  0  0  0  0  0  0  0
    2.3011   -1.9902    0.0000 C   0  0  0  0  0  0  0  0  0  0  0  0
    1.1540   -2.6605    0.0000 N   0  0  0  0  0  0  0  0  0  0  0  0
    0.0000   -1.9902    0.0000 O   0  0  0  0  0  0  0  0  0  0  0  0
    1.1540   -3.9873    0.0000 O   0  0  0  0  0  0  0  0  0  0  0  0
  1  2  1  0  0  0  0 
  2  3  2  0  0  0  0 
  2  4  1  0  0  0  0 
  3  5  1  0  0  0  0 
  3  6  1  0  0  0  0 
  7  4  2  0  0  0  0 
  5  8  1  0  0  0  0 
  5  9  2  0  0  0  0 
  6 10  2  0  0  0  0 
 10  7  1  0  0  0  0 
 10 11  1  0  0  0  0 
 11 12  1  0  0  0  0 
 11 13  2  0  0  0  0 
M  CHG  1   5   1
M  CHG  1   8  -1
M  CHG  1  11   1
M  CHG  1  12  -1
M  END
> <Name>
Benzenamine, 2,4-dinitro-

> <Source>
DSSTox2DMolFile

> <Tox>
3.720

> <CAS>
97-02-9

$$$$

  CDK

 17 18  0  0  0  0  0  0  0  0999 V2000
    4.6095   -6.6481    0.0000 O   0  0  0  0  0  0  0  0  0  0  0  0
    3.4554   -5.9847    0.0000 C   0  0  0  0  0  0  0  0  0  0  0  0
    2.3013   -6.6481    0.0000 C   0  0  0  0  0  0  0  0  0  0  0  0
    3.4554   -4.6509    0.0000 C   0  0  0  0  0  0  0  0  0  0  0  0
    1.1541   -5.9847    0.0000 C   0  0  0  0  0  0  0  0  0  0  0  0
    2.3013   -3.9875    0.0000 C   0  0  0  0  0  0  0  0  0  0  0  0
    4.6095   -3.9875    0.0000 C   0  0  0  0  0  0  0  0  0  0  0  0
    1.1541   -4.6509    0.0000 C   0  0  0  0  0  0  0  0  0  0  0  0
    4.6095   -2.6606    0.0000 C   0  0  0  0  0  0  0  0  0  0  0  0
    0.0000   -3.9875    0.0000 Cl  0  0  0  0  0  0  0  0  0  0  0  0
    3.4554   -1.9903    0.0000 C   0  0  0  0  0  0  0  0  0  0  0  0
    5.7566   -1.9903    0.0000 C   0  0  0  0  0  0  0  0  0  0  0  0
    3.4554   -0.6634    0.0000 C   0  0  0  0  0  0  0  0  0  0  0  0
    5.7566   -0.6634    0.0000 C   0  0  0  0  0  0  0  0  0  0  0  0
    6.9107   -2.6606    0.0000 O   0  0  0  0  0  0  0  0  0  0  0  0
    2.3013   -0.0000    0.0000 Cl  0  0  0  0  0  0  0  0  0  0  0  0
    4.6095   -0.0000    0.0000 C   0  0  0  0  0  0  0  0  0  0  0  0
  1  2  1  0  0  0  0 
  2  3  2  0  0  0  0 
  2  4  1  0  0  0  0 
  3  5  1  0  0  0  0 
  6  4  2  0  0  0  0 
  4  7  1  0  0  0  0 
  5  8  2  0  0  0  0 
  8  6  1  0  0  0  0 
  7  9  1  0  0  0  0 
  8 10  1  0  0  0  0 
  9 11  2  0  0  0  0 
  9 12  1  0  0  0  0 
 11 13  1  0  0  0  0 
 14 12  2  0  0  0  0 
 12 15  1  0  0  0  0 
 13 16  1  0  0  0  0 
 13 17  2  0  0  0  0 
 17 14  1  0  0  0  0 
M  END
> <Name>
Phenol, 2,2'-methylenebis(4-chloro-

> <Source>
DSSTox2DMolFile

> <Tox>
6.090

> <CAS>
97-23-4

$$$$

  CDK

 12 12  0  0  0  0  0  0  0  0999 V2000
    6.9143   -0.0000    0.0000 O   0  0  0  0  0  0  0  0  0  0  0  0
    5.7605   -0.6696    0.0000 C   0  0  0  0  0  0  0  0  0  0  0  0
    5.7605   -2.0009    0.0000 C   0  0  0  0  0  0  0  0  0  0  0  0
    4.6068   -0.0000    0.0000 C   0  0  0  0  0  0  0  0  0  0  0  0
    4.6068   -2.6624    0.0000 C   0  0  0  0  0  0  0  0  0  0  0  0
    6.9143   -2.6624    0.0000 O   0  0  0  0  0  0  0  0  0  0  0  0
    3.4612   -0.6696    0.0000 C   0  0  0  0  0  0  0  0  0  0  0  0
    3.4612   -2.0009    0.0000 C   0  0  0  0  0  0  0  0  0  0  0  0
    8.0680   -2.0009    0.0000 C   0  0  0  0  0  0  0  0  0  0  0  0
    2.3074   -2.6624    0.0000 C   0  0  0  0  0  0  0  0  0  0  0  0
    1.1537   -2.0009    0.0000 C   0  0  0  0  0  0  0  0  0  0  0  0
    0.0000   -2.6624    0.0000 C   0  0  0  0  0  0  0  0  0  0  0  0
  1  2  1  0  0  0  0 
  2  3  2  0  0  0  0 
  2  4  1  0  0  0  0 
  3  5  1  0  0  0  0 
  3  6  1  0  0  0  0 
  7  4  2  0  0  0  0 
  5  8  2  0  0  0  0 
  6  9  1  0  0  0  0 
  8  7  1  0  0  0  0 
  8 10  1  0  0  0  0 
 10 11  1  0  0  0  0 
 11 12  2  0  0  0  0 
M  END
> <Name>
Phenol, 2-methoxy-4-(2-propenyl)-

> <Source>
DSSTox2DMolFile

> <Tox>
3.420

> <CAS>
97-53-0

$$$$

  CDK

 12 12  0  0  0  0  0  0  0  0999 V2000
    5.7456   -1.9957    0.0000 C   0  0  0  0  0  0  0  0  0  0  0  0
    5.7456   -0.6679    0.0000 C   0  0  0  0  0  0  0  0  0  0  0  0
    4.5868   -2.6797    0.0000 C   0  0  0  0  0  0  0  0  0  0  0  0
    6.9044   -2.6716    0.0000 O   0  0  0  0  0  0  0  0  0  0  0  0
    4.5868   -0.0080    0.0000 C   0  0  0  0  0  0  0  0  0  0  0  0
    6.8964   -0.0000    0.0000 O   0  0  0  0  0  0  0  0  0  0  0  0
    3.4281   -2.0037    0.0000 C   0  0  0  0  0  0  0  0  0  0  0  0
    8.0471   -2.0279    0.0000 C   0  0  0  0  0  0  0  0  0  0  0  0
    3.4281   -0.6760    0.0000 C   0  0  0  0  0  0  0  0  0  0  0  0
    2.2773   -2.6797    0.0000 C   0  0  0  0  0  0  0  0  0  0  0  0
    1.1266   -2.0037    0.0000 C   0  0  0  0  0  0  0  0  0  0  0  0
    0.0000   -2.6394    0.0000 C   0  0  0  0  0  0  0  0  0  0  0  0
  1  2  1  0  0  0  0 
  1  3  2  0  0  0  0 
  1  4  1  0  0  0  0 
  2  5  2  0  0  0  0 
  2  6  1  0  0  0  0 
  3  7  1  0  0  0  0 
  4  8  1  0  0  0  0 
  5  9  1  0  0  0  0 
 10  7  1  0  0  0  0 
  7  9  2  0  0  0  0 
 10 11  2  0  0  0  0 
 11 12  1  0  0  0  0 
M  END
> <Name>
Phenol, 2-methoxy-4-(1-propenyl)-

> <Source>
DSSTox2DMolFile

> <Tox>
3.750

> <CAS>
97-54-1

$$$$

  CDK

  8  7  0  0  0  0  0  0  0  0999 V2000
    1.7063    1.5056    0.0000 O   0  0  0  0  0  0  0  0  0  0  0  0
    2.6096    1.0037    0.0000 C   0  0  0  0  0  0  0  0  0  0  0  0
    0.8531    1.0037    0.0000 C   0  0  0  0  0  0  0  0  0  0  0  0
    3.4628    1.5056    0.0000 C   0  0  0  0  0  0  0  0  0  0  0  0
    2.6096    0.0000    0.0000 O   0  0  0  0  0  0  0  0  0  0  0  0
    0.0000    1.5056    0.0000 C   0  0  0  0  0  0  0  0  0  0  0  0
    3.4628    2.5093    0.0000 C   0  0  0  0  0  0  0  0  0  0  0  0
    4.3159    1.0037    0.0000 C   0  0  0  0  0  0  0  0  0  0  0  0
  1  2  1  0  0  0  0 
  1  3  1  0  0  0  0 
  2  4  1  0  0  0  0 
  2  5  2  0  0  0  0 
  3  6  1  0  0  0  0 
  4  7  1  0  0  0  0 
  4  8  1  0  0  0  0 
M  END
> <Name>
Propanoic acid, 2-methyl-, ethyl ester

> <Source>
NIST2DMolFile

> <Tox>
1.729

> <CAS>
97-62-1

$$$$

  CDK

  8  7  0  0  0  0  0  0  0  0999 V2000
    3.4577   -0.0000    0.0000 O   0  0  0  0  0  0  0  0  0  0  0  0
    3.4577   -1.3312    0.0000 C   0  0  0  0  0  0  0  0  0  0  0  0
    2.3051   -1.9939    0.0000 O   0  0  0  0  0  0  0  0  0  0  0  0
    4.6103   -1.9939    0.0000 C   0  0  0  0  0  0  0  0  0  0  0  0
    1.1526   -1.3312    0.0000 C   0  0  0  0  0  0  0  0  0  0  0  0
    5.7628   -1.3312    0.0000 C   0  0  0  0  0  0  0  0  0  0  0  0
    4.6103   -3.3252    0.0000 C   0  0  0  0  0  0  0  0  0  0  0  0
    0.0000   -1.9939    0.0000 C   0  0  0  0  0  0  0  0  0  0  0  0
  1  2  2  0  0  0  0 
  2  3  1  0  0  0  0 
  2  4  1  0  0  0  0 
  3  5  1  0  0  0  0 
  4  6  2  0  0  0  0 
  4  7  1  0  0  0  0 
  5  8  1  0  0  0  0 
M  END
> <Name>
2-Propenoic acid, 2-methyl-, ethyl ester

> <Source>
DSSTox2DMolFile

> <Tox>
2.070

> <CAS>
97-63-2

$$$$

  CDK

 10  9  0  0  0  0  0  0  0  0999 V2000
    4.6515   -1.3399    0.0000 C   0  0  0  0  0  0  0  0  0  0  0  0
    5.8109   -1.9856    0.0000 C   0  0  0  0  0  0  0  0  0  0  0  0
    3.4852   -1.9856    0.0000 O   0  0  0  0  0  0  0  0  0  0  0  0
    4.6515   -0.0000    0.0000 O   0  0  0  0  0  0  0  0  0  0  0  0
    6.9425   -1.3399    0.0000 C   0  0  0  0  0  0  0  0  0  0  0  0
    5.8109   -3.3255    0.0000 C   0  0  0  0  0  0  0  0  0  0  0  0
    2.3119   -1.3399    0.0000 C   0  0  0  0  0  0  0  0  0  0  0  0
    1.1594   -1.9995    0.0000 C   0  0  0  0  0  0  0  0  0  0  0  0
    1.1802   -3.3255    0.0000 C   0  0  0  0  0  0  0  0  0  0  0  0
    0.0000   -1.3399    0.0000 C   0  0  0  0  0  0  0  0  0  0  0  0
  1  2  1  0  0  0  0 
  1  3  1  0  0  0  0 
  1  4  2  0  0  0  0 
  2  5  1  0  0  0  0 
  2  6  1  0  0  0  0 
  3  7  1  0  0  0  0 
  7  8  1  0  0  0  0 
  8  9  1  0  0  0  0 
  8 10  1  0  0  0  0 
M  END
> <Name>
Propanoic acid, 2-methyl-, 2-methylpropyl ester

> <Source>
DSSTox2DMolFile

> <Tox>
2.409

> <CAS>
97-85-8

$$$$

  CDK

 10  9  0  0  0  0  0  0  0  0999 V2000
    4.6069   -1.3261    0.0000 C   0  0  0  0  0  0  0  0  0  0  0  0
    4.6069   -0.0000    0.0000 O   0  0  0  0  0  0  0  0  0  0  0  0
    3.4535   -1.9961    0.0000 O   0  0  0  0  0  0  0  0  0  0  0  0
    5.7535   -1.9961    0.0000 C   0  0  0  0  0  0  0  0  0  0  0  0
    2.3000   -1.3261    0.0000 C   0  0  0  0  0  0  0  0  0  0  0  0
    6.9070   -1.3261    0.0000 C   0  0  0  0  0  0  0  0  0  0  0  0
    5.7535   -3.3223    0.0000 C   0  0  0  0  0  0  0  0  0  0  0  0
    1.1535   -1.9961    0.0000 C   0  0  0  0  0  0  0  0  0  0  0  0
    1.1535   -3.3223    0.0000 C   0  0  0  0  0  0  0  0  0  0  0  0
    0.0000   -1.3261    0.0000 C   0  0  0  0  0  0  0  0  0  0  0  0
  1  2  2  0  0  0  0 
  1  3  1  0  0  0  0 
  1  4  1  0  0  0  0 
  3  5  1  0  0  0  0 
  4  6  1  0  0  0  0 
  4  7  2  0  0  0  0 
  5  8  1  0  0  0  0 
  8  9  1  0  0  0  0 
  8 10  1  0  0  0  0 
M  END
> <Name>
2-Propenoic acid, 2-methyl-, 2-methylpropyl ester

> <Source>
DSSTox2DMolFile

> <Tox>
2.720

> <CAS>
97-86-9

$$$$

  CDK

  7  6  0  0  0  0  0  0  0  0999 V2000
   -0.0166    1.1849   -0.4136 C   0  0  0  0  0  0  0  0  0  0  0  0
   -0.0790   -0.3249   -0.2399 C   0  0  0  0  0  0  0  0  0  0  0  0
    0.5180    1.9429    0.3610 O   0  0  0  0  0  0  0  0  0  0  0  0
    1.1424   -0.8947    0.4791 C   0  0  0  0  0  0  0  0  0  0  0  0
   -1.3617   -0.6869    0.5129 C   0  0  0  0  0  0  0  0  0  0  0  0
    2.3824   -0.8545   -0.3861 C   0  0  0  0  0  0  0  0  0  0  0  0
   -2.6065   -0.4270   -0.3065 C   0  0  0  0  0  0  0  0  0  0  0  0
  1  2  1  0  0  0  0 
  1  3  2  0  0  0  0 
  2  4  1  0  0  0  0 
  2  5  1  0  0  0  0 
  4  6  1  0  0  0  0 
  5  7  1  0  0  0  0 
M  END
> <Name>
Butyraldehyde, 2-ethyl-

> <Source>
DougDB3DMolFile

> <Tox>
2.946

> <CAS>
97-96-1

$$$$

  CDK

  7  7  0  0  0  0  0  0  0  0999 V2000
    0.8068    1.5128    0.0000 S   0  0  0  0  0  0  0  0  0  0  0  0
    0.0000    0.9077    0.0000 C   0  0  0  0  0  0  0  0  0  0  0  0
    1.6640    0.9077    0.0000 C   0  0  0  0  0  0  0  0  0  0  0  0
    0.3026    0.0000    0.0000 C   0  0  0  0  0  0  0  0  0  0  0  0
    1.3111    0.0000    0.0000 C   0  0  0  0  0  0  0  0  0  0  0  0
    2.5213    1.4119    0.0000 C   0  0  0  0  0  0  0  0  0  0  0  0
    2.5213    2.4204    0.0000 O   0  0  0  0  0  0  0  0  0  0  0  0
  2  1  1  0  0  0  0 
  1  3  1  0  0  0  0 
  4  2  2  0  0  0  0 
  3  5  2  0  0  0  0 
  3  6  1  0  0  0  0 
  5  4  1  0  0  0  0 
  6  7  2  0  0  0  0 
M  END
> <Name>
2-Thiophenecarboxaldehyde

> <Source>
NIST2DMolFile

> <Tox>
2.950

> <CAS>
98-03-3

$$$$

  CDK

 11 11  0  0  0  0  0  0  0  0999 V2000
    5.3217   -1.3304    0.0000 C   0  0  0  0  0  0  0  0  0  0  0  0
    3.9913   -1.3304    0.0000 C   0  0  0  0  0  0  0  0  0  0  0  0
    5.3217   -0.0000    0.0000 C   0  0  0  0  0  0  0  0  0  0  0  0
    6.6521   -1.3304    0.0000 C   0  0  0  0  0  0  0  0  0  0  0  0
    5.3217   -2.6609    0.0000 C   0  0  0  0  0  0  0  0  0  0  0  0
    3.3261   -2.4813    0.0000 C   0  0  0  0  0  0  0  0  0  0  0  0
    3.3261   -0.1796    0.0000 C   0  0  0  0  0  0  0  0  0  0  0  0
    1.9956   -2.4813    0.0000 C   0  0  0  0  0  0  0  0  0  0  0  0
    1.9956   -0.1796    0.0000 C   0  0  0  0  0  0  0  0  0  0  0  0
    1.3304   -1.3304    0.0000 C   0  0  0  0  0  0  0  0  0  0  0  0
    0.0000   -1.3304    0.0000 O   0  0  0  0  0  0  0  0  0  0  0  0
  1  2  1  0  0  0  0 
  1  3  1  0  0  0  0 
  1  4  1  0  0  0  0 
  1  5  1  0  0  0  0 
  2  6  2  0  0  0  0 
  2  7  1  0  0  0  0 
  6  8  1  0  0  0  0 
  9  7  2  0  0  0  0 
  8 10  2  0  0  0  0 
 10  9  1  0  0  0  0 
 10 11  1  0  0  0  0 
M  END
> <Name>
Phenol, 4-(1,1-dimethylethyl)-

> <Source>
DSSTox2DMolFile

> <Tox>
3.910

> <CAS>
98-54-4

$$$$

  CDK

  9  9  0  0  0  0  0  0  0  0999 V2000
    2.6574   -0.0000    0.0000 C   0  0  0  0  0  0  0  0  0  0  0  0
    3.9884   -0.0000    0.0000 C   0  0  0  0  0  0  0  0  0  0  0  0
    1.9965   -1.1542    0.0000 C   0  0  0  0  0  0  0  0  0  0  0  0
    4.6539   -1.1542    0.0000 C   0  0  0  0  0  0  0  0  0  0  0  0
    2.6574   -2.3037    0.0000 C   0  0  0  0  0  0  0  0  0  0  0  0
    0.6655   -1.1542    0.0000 C   0  0  0  0  0  0  0  0  0  0  0  0
    3.9884   -2.3037    0.0000 C   0  0  0  0  0  0  0  0  0  0  0  0
    0.0000   -2.3037    0.0000 C   0  0  0  0  0  0  0  0  0  0  0  0
    0.0000   -0.0000    0.0000 C   0  0  0  0  0  0  0  0  0  0  0  0
  1  2  2  0  0  0  0 
  1  3  1  0  0  0  0 
  2  4  1  0  0  0  0 
  5  3  2  0  0  0  0 
  3  6  1  0  0  0  0 
  4  7  2  0  0  0  0 
  7  5  1  0  0  0  0 
  6  8  1  0  0  0  0 
  6  9  1  0  0  0  0 
M  END
> <Name>
Benzene, (1-methylethyl)-

> <Source>
DSSTox2DMolFile

> <Tox>
3.690

> <CAS>
98-82-8

$$$$

  CDK

  9  9  0  0  0  0  0  0  0  0999 V2000
    2.6574   -0.0000    0.0000 C   0  0  0  0  0  0  0  0  0  0  0  0
    3.9884   -0.0000    0.0000 C   0  0  0  0  0  0  0  0  0  0  0  0
    1.9965   -1.1542    0.0000 C   0  0  0  0  0  0  0  0  0  0  0  0
    4.6539   -1.1542    0.0000 C   0  0  0  0  0  0  0  0  0  0  0  0
    2.6574   -2.3037    0.0000 C   0  0  0  0  0  0  0  0  0  0  0  0
    0.6655   -1.1542    0.0000 C   0  0  0  0  0  0  0  0  0  0  0  0
    3.9884   -2.3037    0.0000 C   0  0  0  0  0  0  0  0  0  0  0  0
    0.0000   -2.3037    0.0000 O   0  0  0  0  0  0  0  0  0  0  0  0
    0.0000   -0.0000    0.0000 C   0  0  0  0  0  0  0  0  0  0  0  0
  1  2  2  0  0  0  0 
  1  3  1  0  0  0  0 
  2  4  1  0  0  0  0 
  5  3  2  0  0  0  0 
  3  6  1  0  0  0  0 
  4  7  2  0  0  0  0 
  7  5  1  0  0  0  0 
  6  8  2  0  0  0  0 
  6  9  1  0  0  0  0 
M  END
> <Name>
Ethanone, 1-phenyl-

> <Source>
DSSTox2DMolFile

> <Tox>
2.540

> <CAS>
98-86-2

$$$$

  CDK

  9  9  0  0  0  0  0  0  0  0999 V2000
    1.9965   -1.1542    0.0000 C   0  0  0  0  0  0  0  0  0  0  0  0
    2.6574   -0.0000    0.0000 C   0  0  0  0  0  0  0  0  0  0  0  0
    2.6574   -2.3037    0.0000 C   0  0  0  0  0  0  0  0  0  0  0  0
    0.6655   -1.1542    0.0000 C   0  0  0  0  0  0  0  0  0  0  0  0
    3.9884   -0.0000    0.0000 C   0  0  0  0  0  0  0  0  0  0  0  0
    3.9884   -2.3037    0.0000 C   0  0  0  0  0  0  0  0  0  0  0  0
    0.0000   -2.3037    0.0000 Cl  0  0  0  0  0  0  0  0  0  0  0  0
    0.0000   -0.0000    0.0000 Cl  0  0  0  0  0  0  0  0  0  0  0  0
    4.6539   -1.1542    0.0000 C   0  0  0  0  0  0  0  0  0  0  0  0
  1  2  2  0  0  0  0 
  1  3  1  0  0  0  0 
  1  4  1  0  0  0  0 
  2  5  1  0  0  0  0 
  6  3  2  0  0  0  0 
  4  7  1  0  0  0  0 
  4  8  1  0  0  0  0 
  5  9  2  0  0  0  0 
  9  6  1  0  0  0  0 
M  END
> <Name>
Toluene, alpha,alpha-dichloro- (8CI)

> <Source>
DSSTox2DMolFile

> <Tox>
3.110

> <CAS>
98-87-3

$$$$

  CDK

  9  9  0  0  0  0  0  0  0  0999 V2000
    0.0000   -2.3037    0.0000 O   0  0  0  0  0  0  0  0  0  0  0  0
    0.6655   -1.1542    0.0000 N   0  0  0  0  0  0  0  0  0  0  0  0
    1.9965   -1.1542    0.0000 C   0  0  0  0  0  0  0  0  0  0  0  0
    0.0000   -0.0000    0.0000 O   0  0  0  0  0  0  0  0  0  0  0  0
    2.6574   -0.0000    0.0000 C   0  0  0  0  0  0  0  0  0  0  0  0
    2.6574   -2.3037    0.0000 C   0  0  0  0  0  0  0  0  0  0  0  0
    3.9884   -0.0000    0.0000 C   0  0  0  0  0  0  0  0  0  0  0  0
    3.9884   -2.3037    0.0000 C   0  0  0  0  0  0  0  0  0  0  0  0
    4.6539   -1.1542    0.0000 C   0  0  0  0  0  0  0  0  0  0  0  0
  1  2  2  0  0  0  0 
  2  3  1  0  0  0  0 
  2  4  1  0  0  0  0 
  3  5  2  0  0  0  0 
  3  6  1  0  0  0  0 
  5  7  1  0  0  0  0 
  8  6  2  0  0  0  0 
  7  9  2  0  0  0  0 
  9  8  1  0  0  0  0 
M  CHG  1   2   1
M  CHG  1   4  -1
M  END
> <Name>
Benzene, nitro-

> <Source>
DSSTox2DMolFile

> <Tox>
3.140

> <CAS>
98-95-3

$$$$

  CDK

 10 10  0  0  0  0  0  0  0  0999 V2000
    2.6577   -3.4536    0.0000 C   0  0  0  0  0  0  0  0  0  0  0  0
    1.9968   -2.3040    0.0000 C   0  0  0  0  0  0  0  0  0  0  0  0
    3.9889   -3.4536    0.0000 C   0  0  0  0  0  0  0  0  0  0  0  0
    0.6656   -2.3040    0.0000 C   0  0  0  0  0  0  0  0  0  0  0  0
    2.6577   -1.1497    0.0000 C   0  0  0  0  0  0  0  0  0  0  0  0
    4.6545   -2.3040    0.0000 C   0  0  0  0  0  0  0  0  0  0  0  0
    0.0000   -1.1497    0.0000 O   0  0  0  0  0  0  0  0  0  0  0  0
    0.0000   -3.4536    0.0000 C   0  0  0  0  0  0  0  0  0  0  0  0
    3.9889   -1.1497    0.0000 C   0  0  0  0  0  0  0  0  0  0  0  0
    4.6545   -0.0000    0.0000 N   0  0  0  0  0  0  0  0  0  0  0  0
  1  2  2  0  0  0  0 
  1  3  1  0  0  0  0 
  2  4  1  0  0  0  0 
  2  5  1  0  0  0  0 
  6  3  2  0  0  0  0 
  4  7  2  0  0  0  0 
  4  8  1  0  0  0  0 
  5  9  2  0  0  0  0 
  9  6  1  0  0  0  0 
  9 10  1  0  0  0  0 
M  END
> <Name>
Ethanone, 1-(3-aminophenyl)-

> <Source>
DSSTox2DMolFile

> <Tox>
2.180

> <CAS>
99-03-6

$$$$

  CDK

 10 10  0  0  0  0  0  0  0  0999 V2000
    0.0000   -3.4536    0.0000 O   0  0  0  0  0  0  0  0  0  0  0  0
    0.6656   -2.3040    0.0000 C   0  0  0  0  0  0  0  0  0  0  0  0
    1.9968   -2.3040    0.0000 C   0  0  0  0  0  0  0  0  0  0  0  0
    0.0000   -1.1497    0.0000 O   0  0  0  0  0  0  0  0  0  0  0  0
    2.6577   -1.1497    0.0000 C   0  0  0  0  0  0  0  0  0  0  0  0
    2.6577   -3.4536    0.0000 C   0  0  0  0  0  0  0  0  0  0  0  0
    3.9889   -1.1497    0.0000 C   0  0  0  0  0  0  0  0  0  0  0  0
    3.9889   -3.4536    0.0000 C   0  0  0  0  0  0  0  0  0  0  0  0
    4.6545   -0.0000    0.0000 O   0  0  0  0  0  0  0  0  0  0  0  0
    4.6545   -2.3040    0.0000 C   0  0  0  0  0  0  0  0  0  0  0  0
  1  2  2  0  0  0  0 
  2  3  1  0  0  0  0 
  2  4  1  0  0  0  0 
  3  5  2  0  0  0  0 
  3  6  1  0  0  0  0 
  5  7  1  0  0  0  0 
  8  6  2  0  0  0  0 
  7  9  1  0  0  0  0 
  7 10  2  0  0  0  0 
 10  8  1  0  0  0  0 
M  END
> <Name>
3-hydroxybenzoic acid

> <Source>
DSSTox2DMolFile

> <Tox>
2.190

> <CAS>
99-06-9

$$$$

  CDK

 10 10  0  0  0  0  0  0  0  0999 V2000
    0.0000   -0.0000    0.0000 C   0  0  0  0  0  0  0  0  0  0  0  0
    0.6656   -1.1497    0.0000 C   0  0  0  0  0  0  0  0  0  0  0  0
    1.9968   -1.1497    0.0000 C   0  0  0  0  0  0  0  0  0  0  0  0
    0.0000   -2.3040    0.0000 C   0  0  0  0  0  0  0  0  0  0  0  0
    2.6577   -2.3040    0.0000 C   0  0  0  0  0  0  0  0  0  0  0  0
    0.6656   -3.4536    0.0000 C   0  0  0  0  0  0  0  0  0  0  0  0
    3.9889   -2.3040    0.0000 N   0  0  0  0  0  0  0  0  0  0  0  0
    1.9968   -3.4536    0.0000 C   0  0  0  0  0  0  0  0  0  0  0  0
    4.6545   -3.4536    0.0000 O   0  0  0  0  0  0  0  0  0  0  0  0
    4.6545   -1.1497    0.0000 O   0  0  0  0  0  0  0  0  0  0  0  0
  1  2  1  0  0  0  0 
  2  3  2  0  0  0  0 
  2  4  1  0  0  0  0 
  3  5  1  0  0  0  0 
  6  4  2  0  0  0  0 
  5  7  1  0  0  0  0 
  5  8  2  0  0  0  0 
  8  6  1  0  0  0  0 
  7  9  2  0  0  0  0 
  7 10  1  0  0  0  0 
M  CHG  1   7   1
M  CHG  1  10  -1
M  END
> <Name>
Benzene, 1-methyl-3-nitro-

> <Source>
DSSTox2DMolFile

> <Tox>
3.420

> <CAS>
99-08-1

$$$$

  CDK

 10 10  0  0  0  0  0  0  0  0999 V2000
    3.9889   -2.3040    0.0000 N   0  0  0  0  0  0  0  0  0  0  0  0
    4.6545   -3.4536    0.0000 O   0  0  0  0  0  0  0  0  0  0  0  0
    4.6545   -1.1497    0.0000 O   0  0  0  0  0  0  0  0  0  0  0  0
    2.6577   -2.3040    0.0000 C   0  0  0  0  0  0  0  0  0  0  0  0
    1.9968   -3.4536    0.0000 C   0  0  0  0  0  0  0  0  0  0  0  0
    1.9968   -1.1497    0.0000 C   0  0  0  0  0  0  0  0  0  0  0  0
    0.6656   -3.4536    0.0000 C   0  0  0  0  0  0  0  0  0  0  0  0
    0.6656   -1.1497    0.0000 C   0  0  0  0  0  0  0  0  0  0  0  0
    0.0000   -2.3040    0.0000 C   0  0  0  0  0  0  0  0  0  0  0  0
    0.0000   -0.0000    0.0000 N   0  0  0  0  0  0  0  0  0  0  0  0
  1  2  2  0  0  0  0 
  1  3  1  0  0  0  0 
  1  4  1  0  0  0  0 
  4  5  2  0  0  0  0 
  4  6  1  0  0  0  0 
  5  7  1  0  0  0  0 
  8  6  2  0  0  0  0 
  7  9  2  0  0  0  0 
  9  8  1  0  0  0  0 
  8 10  1  0  0  0  0 
M  CHG  1   1   1
M  CHG  1   3  -1
M  END
> <Name>
Benzenamine, 3-nitro-

> <Source>
DSSTox2DMolFile

> <Tox>
3.030

> <CAS>
99-09-2

$$$$

  CDK

 12 12  0  0  0  0  0  0  0  0999 V2000
    1.4976    2.5958    0.0000 C   0  0  0  0  0  0  0  0  0  0  0  0
    0.9984    1.7472    0.0000 C   0  0  0  0  0  0  0  0  0  0  0  0
    2.4960    2.5958    0.0000 C   0  0  0  0  0  0  0  0  0  0  0  0
    0.9984    3.4444    0.0000 Br  0  0  0  0  0  0  0  0  0  0  0  0
    1.4976    0.8486    0.0000 C   0  0  0  0  0  0  0  0  0  0  0  0
    0.0000    1.7472    0.0000 O   0  0  0  0  0  0  0  0  0  0  0  0
    2.9951    1.7472    0.0000 C   0  0  0  0  0  0  0  0  0  0  0  0
    2.4960    0.8486    0.0000 C   0  0  0  0  0  0  0  0  0  0  0  0
    0.9984    0.0000    0.0000 Br  0  0  0  0  0  0  0  0  0  0  0  0
    3.9935    1.7472    0.0000 N   0  0  0  0  0  0  0  0  0  0  0  0
    4.4927    2.5958    0.0000 O   0  0  0  0  0  0  0  0  0  0  0  0
    4.4927    0.8486    0.0000 O   0  0  0  0  0  0  0  0  0  0  0  0
  1  2  2  0  0  0  0 
  3  1  1  0  0  0  0 
  1  4  1  0  0  0  0 
  2  5  1  0  0  0  0 
  2  6  1  0  0  0  0 
  7  3  2  0  0  0  0 
  5  8  2  0  0  0  0 
  5  9  1  0  0  0  0 
  8  7  1  0  0  0  0 
  7 10  1  0  0  0  0 
 10 11  2  0  0  0  0 
 10 12  2  0  0  0  0 
M  END
> <Name>
Phenol, 2,6-dibromo-4-nitro-

> <Source>
NIST2DMolFile

> <Tox>
4.360

> <CAS>
99-28-5

$$$$

  CDK

 11 11  0  0  0  0  0  0  0  0999 V2000
    5.9835   -2.3037    0.0000 C   0  0  0  0  0  0  0  0  0  0  0  0
    4.6552   -2.3037    0.0000 C   0  0  0  0  0  0  0  0  0  0  0  0
    3.9910   -3.4525    0.0000 C   0  0  0  0  0  0  0  0  0  0  0  0
    3.9910   -1.1488    0.0000 C   0  0  0  0  0  0  0  0  0  0  0  0
    2.6567   -3.4525    0.0000 C   0  0  0  0  0  0  0  0  0  0  0  0
    2.6567   -1.1488    0.0000 C   0  0  0  0  0  0  0  0  0  0  0  0
    4.6552   -0.0000    0.0000 C   0  0  0  0  0  0  0  0  0  0  0  0
    1.9925   -2.3037    0.0000 C   0  0  0  0  0  0  0  0  0  0  0  0
    0.6642   -2.3037    0.0000 N   0  0  0  0  0  0  0  0  0  0  0  0
    0.0000   -3.4525    0.0000 O   0  0  0  0  0  0  0  0  0  0  0  0
    0.0000   -1.1488    0.0000 O   0  0  0  0  0  0  0  0  0  0  0  0
  1  2  1  0  0  0  0 
  2  3  2  0  0  0  0 
  2  4  1  0  0  0  0 
  3  5  1  0  0  0  0 
  6  4  2  0  0  0  0 
  4  7  1  0  0  0  0 
  5  8  2  0  0  0  0 
  8  6  1  0  0  0  0 
  8  9  1  0  0  0  0 
  9 10  1  0  0  0  0 
  9 11  2  0  0  0  0 
M  CHG  1   9   1
M  CHG  1  10  -1
M  END
> <Name>
o-Xylene, 4-nitro- (8CI)

> <Source>
DSSTox2DMolFile

> <Tox>
3.590

> <CAS>
99-51-4

$$$$

  CDK

 11 11  0  0  0  0  0  0  0  0999 V2000
    5.3194   -2.3037    0.0000 N   0  0  0  0  0  0  0  0  0  0  0  0
    5.9835   -1.1488    0.0000 O   0  0  0  0  0  0  0  0  0  0  0  0
    5.9835   -3.4525    0.0000 O   0  0  0  0  0  0  0  0  0  0  0  0
    3.9910   -2.3037    0.0000 C   0  0  0  0  0  0  0  0  0  0  0  0
    3.3269   -3.4525    0.0000 C   0  0  0  0  0  0  0  0  0  0  0  0
    3.3269   -1.1488    0.0000 C   0  0  0  0  0  0  0  0  0  0  0  0
    1.9925   -3.4525    0.0000 C   0  0  0  0  0  0  0  0  0  0  0  0
    1.9925   -1.1488    0.0000 C   0  0  0  0  0  0  0  0  0  0  0  0
    1.3283   -2.3037    0.0000 C   0  0  0  0  0  0  0  0  0  0  0  0
    1.3283   -0.0000    0.0000 C   0  0  0  0  0  0  0  0  0  0  0  0
    0.0000   -2.3037    0.0000 N   0  0  0  0  0  0  0  0  0  0  0  0
  1  2  2  0  0  0  0 
  1  3  1  0  0  0  0 
  1  4  1  0  0  0  0 
  4  5  2  0  0  0  0 
  4  6  1  0  0  0  0 
  5  7  1  0  0  0  0 
  8  6  2  0  0  0  0 
  7  9  2  0  0  0  0 
  9  8  1  0  0  0  0 
  8 10  1  0  0  0  0 
  9 11  1  0  0  0  0 
M  CHG  1   1   1
M  CHG  1   3  -1
M  END
> <Name>
Benzenamine, 2-methyl-4-nitro-

> <Source>
DSSTox2DMolFile

> <Tox>
3.490

> <CAS>
99-52-5

$$$$

  CDK

 11 11  0  0  0  0  0  0  0  0999 V2000
    0.0000   -3.4525    0.0000 O   0  0  0  0  0  0  0  0  0  0  0  0
    0.6642   -2.3037    0.0000 N   0  0  0  0  0  0  0  0  0  0  0  0
    1.9925   -2.3037    0.0000 C   0  0  0  0  0  0  0  0  0  0  0  0
    0.0000   -1.1488    0.0000 O   0  0  0  0  0  0  0  0  0  0  0  0
    2.6567   -1.1488    0.0000 C   0  0  0  0  0  0  0  0  0  0  0  0
    2.6567   -3.4525    0.0000 C   0  0  0  0  0  0  0  0  0  0  0  0
    3.9910   -1.1488    0.0000 C   0  0  0  0  0  0  0  0  0  0  0  0
    3.9910   -3.4525    0.0000 C   0  0  0  0  0  0  0  0  0  0  0  0
    4.6552   -2.3037    0.0000 C   0  0  0  0  0  0  0  0  0  0  0  0
    4.6552   -0.0000    0.0000 N   0  0  0  0  0  0  0  0  0  0  0  0
    5.9835   -2.3037    0.0000 N   0  0  0  0  0  0  0  0  0  0  0  0
  1  2  2  0  0  0  0 
  2  3  1  0  0  0  0 
  2  4  1  0  0  0  0 
  3  5  2  0  0  0  0 
  3  6  1  0  0  0  0 
  5  7  1  0  0  0  0 
  8  6  2  0  0  0  0 
  7  9  2  0  0  0  0 
  7 10  1  0  0  0  0 
  9  8  1  0  0  0  0 
  9 11  1  0  0  0  0 
M  CHG  1   2   1
M  CHG  1   4  -1
M  END
> <Name>
1,2-Benzenediamine, 4-nitro-

> <Source>
DSSTox2DMolFile

> <Tox>
3.520

> <CAS>
99-56-9

$$$$

  CDK

 11 11  0  0  0  0  0  0  0  0999 V2000
    2.6447   -1.0919    0.0000 C   0  0  0  0  0  0  0  0  0  0  0  0
    1.4807   -0.1642    0.0000 C   0  0  0  0  0  0  0  0  0  0  0  0
    3.7930   -0.7138    0.0000 O   0  0  0  0  0  0  0  0  0  0  0  0
    0.1955   -0.7052    0.0000 C   0  0  0  0  0  0  0  0  0  0  0  0
    1.6549    1.2210    0.0000 C   0  0  0  0  0  0  0  0  0  0  0  0
   -0.9183    0.1407    0.0000 C   0  0  0  0  0  0  0  0  0  0  0  0
    0.5455    2.0602    0.0000 C   0  0  0  0  0  0  0  0  0  0  0  0
   -0.7383    1.5303    0.0000 C   0  0  0  0  0  0  0  0  0  0  0  0
   -2.3005   -0.4385    0.0000 N   0  0  0  0  0  0  0  0  0  0  0  0
   -3.2591    0.3072    0.0000 O   0  0  0  0  0  0  0  0  0  0  0  0
   -2.4383   -1.6456    0.0000 O   0  0  0  0  0  0  0  0  0  0  0  0
  1  2  1  0  0  0  0 
  1  3  2  0  0  0  0 
  2  4  1  0  0  0  0 
  2  5  2  0  0  0  0 
  4  6  2  0  0  0  0 
  7  5  1  0  0  0  0 
  6  8  1  0  0  0  0 
  6  9  1  0  0  0  0 
  8  7  2  0  0  0  0 
  9 10  2  0  0  0  0 
  9 11  1  0  0  0  0 
M  CHG  1   9   1
M  CHG  1  11  -1
M  END
> <Name>
Benzaldehyde, 3-nitro-

> <Source>
DougDB3DMolFile

> <Tox>
3.110

> <CAS>
99-61-6

$$$$

  CDK

 12 12  0  0  0  0  0  0  0  0999 V2000
    3.9905   -2.3033    0.0000 C   0  0  0  0  0  0  0  0  0  0  0  0
    4.6546   -3.4580    0.0000 C   0  0  0  0  0  0  0  0  0  0  0  0
    2.6563   -2.3033    0.0000 C   0  0  0  0  0  0  0  0  0  0  0  0
    4.6546   -1.1547    0.0000 N   0  0  0  0  0  0  0  0  0  0  0  0
    3.9905   -4.6067    0.0000 C   0  0  0  0  0  0  0  0  0  0  0  0
    1.9922   -3.4580    0.0000 C   0  0  0  0  0  0  0  0  0  0  0  0
    3.9905   -0.0000    0.0000 O   0  0  0  0  0  0  0  0  0  0  0  0
    5.9827   -1.1547    0.0000 O   0  0  0  0  0  0  0  0  0  0  0  0
    2.6563   -4.6067    0.0000 C   0  0  0  0  0  0  0  0  0  0  0  0
    0.6641   -3.4580    0.0000 N   0  0  0  0  0  0  0  0  0  0  0  0
    0.0000   -4.6067    0.0000 O   0  0  0  0  0  0  0  0  0  0  0  0
    0.0000   -2.3033    0.0000 O   0  0  0  0  0  0  0  0  0  0  0  0
  1  2  2  0  0  0  0 
  1  3  1  0  0  0  0 
  1  4  1  0  0  0  0 
  2  5  1  0  0  0  0 
  6  3  2  0  0  0  0 
  4  7  1  0  0  0  0 
  4  8  2  0  0  0  0 
  5  9  2  0  0  0  0 
  9  6  1  0  0  0  0 
  6 10  1  0  0  0  0 
 10 11  1  0  0  0  0 
 10 12  2  0  0  0  0 
M  CHG  1   4   1
M  CHG  1   7  -1
M  CHG  1  10   1
M  CHG  1  11  -1
M  END
> <Name>
Benzene, 1,3-dinitro-

> <Source>
DSSTox2DMolFile

> <Tox>
3.760

> <CAS>
99-65-0

$$$$

  CDK

 10  9  0  0  0  0  0  0  0  0999 V2000
    3.4563   -0.6682    0.0000 C   0  0  0  0  0  0  0  0  0  0  0  0
    4.6084   -0.0000    0.0000 O   0  0  0  0  0  0  0  0  0  0  0  0
    2.3042   -0.0000    0.0000 O   0  0  0  0  0  0  0  0  0  0  0  0
    3.4563   -1.9989    0.0000 C   0  0  0  0  0  0  0  0  0  0  0  0
    4.6084   -2.6614    0.0000 C   0  0  0  0  0  0  0  0  0  0  0  0
    2.3042   -2.6614    0.0000 C   0  0  0  0  0  0  0  0  0  0  0  0
    5.7605   -1.9989    0.0000 C   0  0  0  0  0  0  0  0  0  0  0  0
    1.1521   -1.9989    0.0000 C   0  0  0  0  0  0  0  0  0  0  0  0
    5.7605   -0.6682    0.0000 C   0  0  0  0  0  0  0  0  0  0  0  0
    0.0000   -2.6614    0.0000 C   0  0  0  0  0  0  0  0  0  0  0  0
  1  2  2  0  0  0  0 
  1  3  1  0  0  0  0 
  1  4  1  0  0  0  0 
  4  5  1  0  0  0  0 
  4  6  1  0  0  0  0 
  5  7  1  0  0  0  0 
  6  8  1  0  0  0  0 
  7  9  1  0  0  0  0 
  8 10  1  0  0  0  0 
M  END
> <Name>
Pentanoic acid, 2-propyl-

> <Source>
DSSTox2DMolFile

> <Tox>
3.026

> <CAS>
99-66-1

$$$$

  CDK

 11 11  0  0  0  0  0  0  0  0999 V2000
    5.9835   -3.4525    0.0000 O   0  0  0  0  0  0  0  0  0  0  0  0
    5.3194   -2.3037    0.0000 C   0  0  0  0  0  0  0  0  0  0  0  0
    5.9835   -1.1488    0.0000 O   0  0  0  0  0  0  0  0  0  0  0  0
    3.9910   -2.3037    0.0000 C   0  0  0  0  0  0  0  0  0  0  0  0
    5.3194   -0.0000    0.0000 C   0  0  0  0  0  0  0  0  0  0  0  0
    3.3269   -3.4525    0.0000 C   0  0  0  0  0  0  0  0  0  0  0  0
    3.3269   -1.1488    0.0000 C   0  0  0  0  0  0  0  0  0  0  0  0
    1.9925   -3.4525    0.0000 C   0  0  0  0  0  0  0  0  0  0  0  0
    1.9925   -1.1488    0.0000 C   0  0  0  0  0  0  0  0  0  0  0  0
    1.3283   -2.3037    0.0000 C   0  0  0  0  0  0  0  0  0  0  0  0
    0.0000   -2.3037    0.0000 C   0  0  0  0  0  0  0  0  0  0  0  0
  1  2  2  0  0  0  0 
  2  3  1  0  0  0  0 
  2  4  1  0  0  0  0 
  3  5  1  0  0  0  0 
  4  6  2  0  0  0  0 
  4  7  1  0  0  0  0 
  6  8  1  0  0  0  0 
  9  7  2  0  0  0  0 
  8 10  2  0  0  0  0 
 10  9  1  0  0  0  0 
 10 11  1  0  0  0  0 
M  END
> <Name>
Benzoic acid, 4-methyl-, methyl ester

> <Source>
DSSTox2DMolFile

> <Tox>
3.230

> <CAS>
99-75-2

$$$$

  CDK

 11 11  0  0  0  0  0  0  0  0999 V2000
    5.3194   -2.3037    0.0000 C   0  0  0  0  0  0  0  0  0  0  0  0
    3.9910   -2.3037    0.0000 C   0  0  0  0  0  0  0  0  0  0  0  0
    5.9835   -3.4525    0.0000 O   0  0  0  0  0  0  0  0  0  0  0  0
    5.9835   -1.1488    0.0000 O   0  0  0  0  0  0  0  0  0  0  0  0
    3.3269   -3.4525    0.0000 C   0  0  0  0  0  0  0  0  0  0  0  0
    3.3269   -1.1488    0.0000 C   0  0  0  0  0  0  0  0  0  0  0  0
    5.3194   -0.0000    0.0000 C   0  0  0  0  0  0  0  0  0  0  0  0
    1.9925   -3.4525    0.0000 C   0  0  0  0  0  0  0  0  0  0  0  0
    1.9925   -1.1488    0.0000 C   0  0  0  0  0  0  0  0  0  0  0  0
    1.3283   -2.3037    0.0000 C   0  0  0  0  0  0  0  0  0  0  0  0
    0.0000   -2.3037    0.0000 O   0  0  0  0  0  0  0  0  0  0  0  0
  1  2  1  0  0  0  0 
  1  3  2  0  0  0  0 
  1  4  1  0  0  0  0 
  2  5  2  0  0  0  0 
  2  6  1  0  0  0  0 
  4  7  1  0  0  0  0 
  5  8  1  0  0  0  0 
  9  6  2  0  0  0  0 
  8 10  2  0  0  0  0 
 10  9  1  0  0  0  0 
 10 11  1  0  0  0  0 
M  END
> <Name>
Benzoic acid, 4-hydroxy-, methyl ester

> <Source>
DSSTox2DMolFile

> <Tox>
3.080

> <CAS>
99-76-3

$$$$

  CDK

 14 14  0  0  0  0  0  0  0  0999 V2000
    2.0542    0.7106   -0.0002 C   0  0  0  0  0  0  0  0  0  0  0  0
    0.5920    0.4088   -0.0002 C   0  0  0  0  0  0  0  0  0  0  0  0
    2.5634    1.8157   -0.0007 O   0  0  0  0  0  0  0  0  0  0  0  0
    2.8561   -0.3902    0.0003 O   0  0  0  0  0  0  0  0  0  0  0  0
    0.1056   -0.9001   -0.0005 C   0  0  0  0  0  0  0  0  0  0  0  0
   -0.3057    1.4795    0.0002 C   0  0  0  0  0  0  0  0  0  0  0  0
    4.2743   -0.1982    0.0004 C   0  0  0  0  0  0  0  0  0  0  0  0
   -1.2641   -1.1371   -0.0004 C   0  0  0  0  0  0  0  0  0  0  0  0
   -1.6758    1.2474    0.0003 C   0  0  0  0  0  0  0  0  0  0  0  0
    4.8899   -1.5838    0.0003 C   0  0  0  0  0  0  0  0  0  0  0  0
   -2.1615   -0.0641    0.0000 C   0  0  0  0  0  0  0  0  0  0  0  0
   -3.6409   -0.3195    0.0001 N   0  0  0  0  0  0  0  0  0  0  0  0
   -4.4069    0.6228    0.0004 O   0  0  0  0  0  0  0  0  0  0  0  0
   -4.0467   -1.4643   -0.0002 O   0  0  0  0  0  0  0  0  0  0  0  0
  1  2  1  0  0  0  0 
  1  3  2  0  0  0  0 
  1  4  1  0  0  0  0 
  2  5  1  0  0  0  0 
  2  6  2  0  0  0  0 
  4  7  1  0  0  0  0 
  5  8  2  0  0  0  0 
  9  6  1  0  0  0  0 
  7 10  1  0  0  0  0 
  8 11  1  0  0  0  0 
 11  9  2  0  0  0  0 
 11 12  1  0  0  0  0 
 12 13  2  0  0  0  0 
 12 14  1  0  0  0  0 
M  CHG  1  12   1
M  CHG  1  14  -1
M  END
> <Name>
Benzoic acid, 4-nitro-, ethyl ester

> <Source>
DougDB3DMolFile

> <Tox>
3.710

> <CAS>
99-77-4

$$$$

  CDK

 10 10  0  0  0  0  0  0  0  0999 V2000
    2.5066    0.0000    0.0000 C   0  0  0  0  0  0  0  0  0  0  0  0
    1.5347    0.0000    0.0000 C   0  0  0  0  0  0  0  0  0  0  0  0
    3.0182    0.8696    0.0000 C   0  0  0  0  0  0  0  0  0  0  0  0
    1.0231    0.8696    0.0000 C   0  0  0  0  0  0  0  0  0  0  0  0
    2.5066    1.7393    0.0000 C   0  0  0  0  0  0  0  0  0  0  0  0
    4.0413    0.8696    0.0000 C   0  0  0  0  0  0  0  0  0  0  0  0
    1.5347    1.7393    0.0000 C   0  0  0  0  0  0  0  0  0  0  0  0
    0.0000    0.8696    0.0000 N   0  0  0  0  0  0  0  0  0  0  0  0
    4.5528    0.0512    0.0000 C   0  0  0  0  0  0  0  0  0  0  0  0
    4.5528    1.7393    0.0000 C   0  0  0  0  0  0  0  0  0  0  0  0
  2  1  2  0  0  0  0 
  1  3  1  0  0  0  0 
  4  2  1  0  0  0  0 
  3  5  2  0  0  0  0 
  3  6  1  0  0  0  0 
  7  4  2  0  0  0  0 
  4  8  1  0  0  0  0 
  5  7  1  0  0  0  0 
  6  9  1  0  0  0  0 
  6 10  1  0  0  0  0 
M  END
> <Name>
Cumidine (8CI)

> <Source>
NIST2DMolFile

> <Tox>
3.220

> <CAS>
99-88-7

$$$$

  CDK

 10 10  0  0  0  0  0  0  0  0999 V2000
    5.3365   -1.1393    0.0000 C   0  0  0  0  0  0  0  0  0  0  0  0
    5.9961   -0.0000    0.0000 O   0  0  0  0  0  0  0  0  0  0  0  0
    4.0054   -1.1393    0.0000 C   0  0  0  0  0  0  0  0  0  0  0  0
    5.9961   -2.2965    0.0000 O   0  0  0  0  0  0  0  0  0  0  0  0
    3.3278   -2.2965    0.0000 C   0  0  0  0  0  0  0  0  0  0  0  0
    3.3278   -0.0000    0.0000 C   0  0  0  0  0  0  0  0  0  0  0  0
    1.9907   -2.2965    0.0000 C   0  0  0  0  0  0  0  0  0  0  0  0
    1.9907   -0.0000    0.0000 C   0  0  0  0  0  0  0  0  0  0  0  0
    1.3371   -1.1393    0.0000 C   0  0  0  0  0  0  0  0  0  0  0  0
    0.0000   -1.1393    0.0000 O   0  0  0  0  0  0  0  0  0  0  0  0
  1  2  2  0  0  0  0 
  1  3  1  0  0  0  0 
  1  4  1  0  0  0  0 
  3  5  2  0  0  0  0 
  3  6  1  0  0  0  0 
  5  7  1  0  0  0  0 
  6  8  2  0  0  0  0 
  7  9  2  0  0  0  0 
  8  9  1  0  0  0  0 
  9 10  1  0  0  0  0 
M  END
> <Name>
Benzoic acid, 4-hydroxy-

> <Source>
DSSTox2DMolFile

> <Tox>
1.980

> <CAS>
99-96-7

$$$$

  CDK

 10 10  0  0  0  0  0  0  0  0999 V2000
    5.9822   -1.1546    0.0000 O   0  0  0  0  0  0  0  0  0  0  0  0
    4.6542   -1.1546    0.0000 C   0  0  0  0  0  0  0  0  0  0  0  0
    3.9901   -2.3031    0.0000 C   0  0  0  0  0  0  0  0  0  0  0  0
    3.9901   -0.0000    0.0000 C   0  0  0  0  0  0  0  0  0  0  0  0
    2.6561   -2.3031    0.0000 C   0  0  0  0  0  0  0  0  0  0  0  0
    2.6561   -0.0000    0.0000 C   0  0  0  0  0  0  0  0  0  0  0  0
    1.9921   -1.1546    0.0000 C   0  0  0  0  0  0  0  0  0  0  0  0
    0.6640   -1.1546    0.0000 N   0  0  0  0  0  0  0  0  0  0  0  0
    0.0000   -2.3031    0.0000 O   0  0  0  0  0  0  0  0  0  0  0  0
    0.0000   -0.0000    0.0000 O   0  0  0  0  0  0  0  0  0  0  0  0
  1  2  1  0  0  0  0 
  2  3  2  0  0  0  0 
  2  4  1  0  0  0  0 
  3  5  1  0  0  0  0 
  6  4  2  0  0  0  0 
  5  7  2  0  0  0  0 
  7  6  1  0  0  0  0 
  7  8  1  0  0  0  0 
  8  9  2  0  0  0  0 
  8 10  1  0  0  0  0 
M  CHG  1   8   1
M  CHG  1  10  -1
M  END
> <Name>
Phenol, 4-nitro-

> <Source>
DSSTox2DMolFile

> <Tox>
4.420

> <CAS>
100-02-7

$$$$

  CDK

 11 11  0  0  0  0  0  0  0  0999 V2000
   -2.5667   -0.1929   -0.0002 C   0  0  0  0  0  0  0  0  0  0  0  0
   -3.4231    1.0472    0.0024 C   0  0  0  0  0  0  0  0  0  0  0  0
   -3.0810   -1.2989   -0.0024 O   0  0  0  0  0  0  0  0  0  0  0  0
   -1.0852   -0.0255   -0.0001 C   0  0  0  0  0  0  0  0  0  0  0  0
   -0.4904    1.2418   -0.0017 C   0  0  0  0  0  0  0  0  0  0  0  0
   -0.2653   -1.1568    0.0014 C   0  0  0  0  0  0  0  0  0  0  0  0
    0.8871    1.3822   -0.0014 C   0  0  0  0  0  0  0  0  0  0  0  0
    1.1195   -1.0387    0.0016 C   0  0  0  0  0  0  0  0  0  0  0  0
    1.6978    0.2343    0.0004 C   0  0  0  0  0  0  0  0  0  0  0  0
    3.0489    0.5006    0.0012 O   0  0  0  0  0  0  0  0  0  0  0  0
    3.9294   -0.5969   -0.0011 C   0  0  0  0  0  0  0  0  0  0  0  0
  1  2  1  0  0  0  0 
  1  3  2  0  0  0  0 
  1  4  1  0  0  0  0 
  4  5  1  0  0  0  0 
  4  6  2  0  0  0  0 
  5  7  2  0  0  0  0 
  8  6  1  0  0  0  0 
  7  9  1  0  0  0  0 
  9  8  2  0  0  0  0 
  9 10  1  0  0  0  0 
 10 11  1  0  0  0  0 
M  END
> <Name>
Ethanone, 1-(4-methoxyphenyl)-

> <Source>
DougDB3DMolFile

> <Tox>
2.870

> <CAS>
100-06-1

$$$$

  CDK

 11 11  0  0  0  0  0  0  0  0999 V2000
    0.0000   -0.0000    0.0000 C   0  0  0  0  0  0  0  0  0  0  0  0
    0.6654   -1.1511    0.0000 N   0  0  0  0  0  0  0  0  0  0  0  0
    0.0000   -2.3022    0.0000 C   0  0  0  0  0  0  0  0  0  0  0  0
    1.9961   -1.1511    0.0000 C   0  0  0  0  0  0  0  0  0  0  0  0
    2.6615   -0.0000    0.0000 C   0  0  0  0  0  0  0  0  0  0  0  0
    2.6615   -2.3022    0.0000 C   0  0  0  0  0  0  0  0  0  0  0  0
    3.9923   -0.0000    0.0000 C   0  0  0  0  0  0  0  0  0  0  0  0
    3.9923   -2.3022    0.0000 C   0  0  0  0  0  0  0  0  0  0  0  0
    4.6576   -1.1511    0.0000 C   0  0  0  0  0  0  0  0  0  0  0  0
    5.9884   -1.1511    0.0000 C   0  0  0  0  0  0  0  0  0  0  0  0
    6.6538   -0.0000    0.0000 O   0  0  0  0  0  0  0  0  0  0  0  0
  1  2  1  0  0  0  0 
  2  3  1  0  0  0  0 
  2  4  1  0  0  0  0 
  4  5  2  0  0  0  0 
  4  6  1  0  0  0  0 
  5  7  1  0  0  0  0 
  8  6  2  0  0  0  0 
  7  9  2  0  0  0  0 
  9  8  1  0  0  0  0 
  9 10  1  0  0  0  0 
 10 11  2  0  0  0  0 
M  END
> <Name>
Benzaldehyde, 4-(dimethylamino)-

> <Source>
DSSTox2DMolFile

> <Tox>
3.230

> <CAS>
100-10-7

$$$$

  CDK

 11 11  0  0  0  0  0  0  0  0999 V2000
    0.0503    1.7111    0.0000 O   0  0  0  0  0  0  0  0  0  0  0  0
    0.5033    0.8555    0.0000 N   0  0  0  0  0  0  0  0  0  0  0  0
    0.0000    0.0000    0.0000 O   0  0  0  0  0  0  0  0  0  0  0  0
    1.5601    0.8555    0.0000 C   0  0  0  0  0  0  0  0  0  0  0  0
    2.0634    1.7111    0.0000 C   0  0  0  0  0  0  0  0  0  0  0  0
    2.0634    0.0000    0.0000 C   0  0  0  0  0  0  0  0  0  0  0  0
    3.0699    1.7111    0.0000 C   0  0  0  0  0  0  0  0  0  0  0  0
    3.0699    0.0000    0.0000 C   0  0  0  0  0  0  0  0  0  0  0  0
    3.5732    0.8555    0.0000 C   0  0  0  0  0  0  0  0  0  0  0  0
    4.5797    0.8555    0.0000 C   0  0  0  0  0  0  0  0  0  0  0  0
    5.0829    1.7111    0.0000 Br  0  0  0  0  0  0  0  0  0  0  0  0
  1  2  2  0  0  0  0 
  2  3  2  0  0  0  0 
  2  4  1  0  0  0  0 
  5  4  2  0  0  0  0 
  4  6  1  0  0  0  0 
  7  5  1  0  0  0  0 
  6  8  2  0  0  0  0 
  9  7  2  0  0  0  0 
  8  9  1  0  0  0  0 
  9 10  1  0  0  0  0 
 10 11  1  0  0  0  0 
M  END
> <Name>
Benzene, 1-(bromomethyl)-4-nitro-

> <Source>
NIST2DMolFile

> <Tox>
5.310

> <CAS>
100-11-8

$$$$

  CDK

 11 11  0  0  0  0  0  0  0  0999 V2000
    2.0095    1.7584    0.0000 C   0  0  0  0  0  0  0  0  0  0  0  0
    1.5072    0.9043    0.0000 C   0  0  0  0  0  0  0  0  0  0  0  0
    3.0143    1.7584    0.0000 C   0  0  0  0  0  0  0  0  0  0  0  0
    2.0095    0.0502    0.0000 C   0  0  0  0  0  0  0  0  0  0  0  0
    0.5024    0.9043    0.0000 N   0  0  0  0  0  0  0  0  0  0  0  0
    3.5167    0.9043    0.0000 C   0  0  0  0  0  0  0  0  0  0  0  0
    3.0143    0.0000    0.0000 C   0  0  0  0  0  0  0  0  0  0  0  0
    0.0000    0.0502    0.0000 O   0  0  0  0  0  0  0  0  0  0  0  0
    0.0000    1.7584    0.0000 O   0  0  0  0  0  0  0  0  0  0  0  0
    4.5215    0.9043    0.0000 C   0  0  0  0  0  0  0  0  0  0  0  0
    5.0239    1.7584    0.0000 C   0  0  0  0  0  0  0  0  0  0  0  0
  1  2  2  0  0  0  0 
  3  1  1  0  0  0  0 
  2  4  1  0  0  0  0 
  2  5  1  0  0  0  0 
  6  3  2  0  0  0  0 
  4  7  2  0  0  0  0 
  5  8  2  0  0  0  0 
  5  9  2  0  0  0  0 
  7  6  1  0  0  0  0 
  6 10  1  0  0  0  0 
 10 11  1  0  0  0  0 
M  END
> <Name>
Benzene, 1-ethyl-4-nitro-

> <Source>
NIST2DMolFile

> <Tox>
3.430

> <CAS>
100-12-9

$$$$

  CDK

 11 11  0  0  0  0  0  0  0  0999 V2000
    0.6654   -1.1511    0.0000 N   0  0  0  0  0  0  0  0  0  0  0  0
    0.0000   -0.0000    0.0000 O   0  0  0  0  0  0  0  0  0  0  0  0
    0.0000   -2.3022    0.0000 O   0  0  0  0  0  0  0  0  0  0  0  0
    1.9961   -1.1511    0.0000 C   0  0  0  0  0  0  0  0  0  0  0  0
    2.6615   -0.0000    0.0000 C   0  0  0  0  0  0  0  0  0  0  0  0
    2.6615   -2.3022    0.0000 C   0  0  0  0  0  0  0  0  0  0  0  0
    3.9923   -0.0000    0.0000 C   0  0  0  0  0  0  0  0  0  0  0  0
    3.9923   -2.3022    0.0000 C   0  0  0  0  0  0  0  0  0  0  0  0
    4.6576   -1.1511    0.0000 C   0  0  0  0  0  0  0  0  0  0  0  0
    5.9884   -1.1511    0.0000 C   0  0  0  0  0  0  0  0  0  0  0  0
    6.6538   -0.0000    0.0000 Cl  0  0  0  0  0  0  0  0  0  0  0  0
  1  2  2  0  0  0  0 
  1  3  1  0  0  0  0 
  1  4  1  0  0  0  0 
  4  5  2  0  0  0  0 
  4  6  1  0  0  0  0 
  5  7  1  0  0  0  0 
  8  6  2  0  0  0  0 
  7  9  2  0  0  0  0 
  9  8  1  0  0  0  0 
  9 10  1  0  0  0  0 
 10 11  1  0  0  0  0 
M  CHG  1   1   1
M  CHG  1   3  -1
M  END
> <Name>
Benzene, 1-(chloromethyl)-4-nitro-

> <Source>
DSSTox2DMolFile

> <Tox>
4.180

> <CAS>
100-14-1

$$$$

  CDK

 11 11  0  0  0  0  0  0  0  0999 V2000
   -1.7320   -0.2262    0.0004 C   0  0  0  0  0  0  0  0  0  0  0  0
   -0.9407   -1.3895   -0.0002 C   0  0  0  0  0  0  0  0  0  0  0  0
   -1.1321    1.0396    0.0003 C   0  0  0  0  0  0  0  0  0  0  0  0
   -3.0823   -0.4673    0.0012 O   0  0  0  0  0  0  0  0  0  0  0  0
    0.4380   -1.2773   -0.0002 C   0  0  0  0  0  0  0  0  0  0  0  0
    0.2515    1.1398    0.0001 C   0  0  0  0  0  0  0  0  0  0  0  0
   -3.9501    0.6421   -0.0012 C   0  0  0  0  0  0  0  0  0  0  0  0
    1.0466   -0.0122    0.0000 C   0  0  0  0  0  0  0  0  0  0  0  0
    2.5339    0.1032   -0.0001 N   0  0  0  0  0  0  0  0  0  0  0  0
    3.2144   -0.9043   -0.0003 O   0  0  0  0  0  0  0  0  0  0  0  0
    3.0487    1.2052    0.0002 O   0  0  0  0  0  0  0  0  0  0  0  0
  1  2  1  0  0  0  0 
  1  3  2  0  0  0  0 
  1  4  1  0  0  0  0 
  2  5  2  0  0  0  0 
  6  3  1  0  0  0  0 
  4  7  1  0  0  0  0 
  5  8  1  0  0  0  0 
  8  6  2  0  0  0  0 
  8  9  1  0  0  0  0 
  9 10  2  0  0  0  0 
  9 11  1  0  0  0  0 
M  CHG  1   9   1
M  CHG  1  11  -1
M  END
> <Name>
Benzene, 1-methoxy-4-nitro-

> <Source>
DougDB3DMolFile

> <Tox>
3.540

> <CAS>
100-17-4

$$$$

  CDK

 12 12  0  0  0  0  0  0  0  0999 V2000
    0.0000   -0.0000    0.0000 O   0  0  0  0  0  0  0  0  0  0  0  0
    0.6654   -1.1511    0.0000 N   0  0  0  0  0  0  0  0  0  0  0  0
    0.0000   -2.3023    0.0000 O   0  0  0  0  0  0  0  0  0  0  0  0
    1.9962   -1.1511    0.0000 C   0  0  0  0  0  0  0  0  0  0  0  0
    2.6616   -0.0000    0.0000 C   0  0  0  0  0  0  0  0  0  0  0  0
    2.6616   -2.3023    0.0000 C   0  0  0  0  0  0  0  0  0  0  0  0
    3.9924   -0.0000    0.0000 C   0  0  0  0  0  0  0  0  0  0  0  0
    3.9924   -2.3023    0.0000 C   0  0  0  0  0  0  0  0  0  0  0  0
    4.6578   -1.1511    0.0000 C   0  0  0  0  0  0  0  0  0  0  0  0
    5.9885   -1.1511    0.0000 N   0  0  0  0  0  0  0  0  0  0  0  0
    6.6539   -0.0000    0.0000 O   0  0  0  0  0  0  0  0  0  0  0  0
    6.6539   -2.3023    0.0000 O   0  0  0  0  0  0  0  0  0  0  0  0
  1  2  1  0  0  0  0 
  2  3  2  0  0  0  0 
  2  4  1  0  0  0  0 
  4  5  2  0  0  0  0 
  4  6  1  0  0  0  0 
  5  7  1  0  0  0  0 
  8  6  2  0  0  0  0 
  7  9  2  0  0  0  0 
  9  8  1  0  0  0  0 
  9 10  1  0  0  0  0 
 10 11  1  0  0  0  0 
 10 12  2  0  0  0  0 
M  CHG  1   1  -1
M  CHG  1   2   1
M  CHG  1  10   1
M  CHG  1  11  -1
M  END
> <Name>
Benzene, 1,4-dinitro-

> <Source>
DSSTox2DMolFile

> <Tox>
4.300

> <CAS>
100-25-4

$$$$

  CDK

  8  7  0  0  0  0  0  0  0  0999 V2000
    0.0000   -2.3042    0.0000 C   0  0  0  0  0  0  0  0  0  0  0  0
    1.3303   -2.3042    0.0000 C   0  0  0  0  0  0  0  0  0  0  0  0
    1.9955   -1.1547    0.0000 N   0  0  0  0  0  0  0  0  0  0  0  0
    3.3259   -1.1547    0.0000 C   0  0  0  0  0  0  0  0  0  0  0  0
    1.3303   -0.0000    0.0000 C   0  0  0  0  0  0  0  0  0  0  0  0
    3.9910   -2.3042    0.0000 C   0  0  0  0  0  0  0  0  0  0  0  0
    0.0000   -0.0000    0.0000 C   0  0  0  0  0  0  0  0  0  0  0  0
    5.3214   -2.3042    0.0000 O   0  0  0  0  0  0  0  0  0  0  0  0
  1  2  1  0  0  0  0 
  2  3  1  0  0  0  0 
  3  4  1  0  0  0  0 
  3  5  1  0  0  0  0 
  4  6  1  0  0  0  0 
  5  7  1  0  0  0  0 
  6  8  1  0  0  0  0 
M  END
> <Name>
Ethanol, 2-(diethylamino)-

> <Source>
DSSTox2DMolFile

> <Tox>
1.505

> <CAS>
100-37-8

$$$$

  CDK

  8  8  0  0  0  0  0  0  0  0999 V2000
    0.0000   -0.0000    0.0000 Br  0  0  0  0  0  0  0  0  0  0  0  0
    0.6654   -1.1540    0.0000 C   0  0  0  0  0  0  0  0  0  0  0  0
    1.9962   -1.1540    0.0000 C   0  0  0  0  0  0  0  0  0  0  0  0
    2.6569   -0.0000    0.0000 C   0  0  0  0  0  0  0  0  0  0  0  0
    2.6569   -2.3033    0.0000 C   0  0  0  0  0  0  0  0  0  0  0  0
    3.9877   -0.0000    0.0000 C   0  0  0  0  0  0  0  0  0  0  0  0
    3.9877   -2.3033    0.0000 C   0  0  0  0  0  0  0  0  0  0  0  0
    4.6531   -1.1540    0.0000 C   0  0  0  0  0  0  0  0  0  0  0  0
  1  2  1  0  0  0  0 
  2  3  1  0  0  0  0 
  3  4  2  0  0  0  0 
  3  5  1  0  0  0  0 
  4  6  1  0  0  0  0 
  7  5  2  0  0  0  0 
  6  8  2  0  0  0  0 
  8  7  1  0  0  0  0 
M  END
> <Name>
Benzene, (bromomethyl)-

> <Source>
DSSTox2DMolFile

> <Tox>
3.638

> <CAS>
100-39-0

$$$$

  CDK

  8  8  0  0  0  0  0  0  0  0999 V2000
    0.0000   -0.0000    0.0000 C   0  0  0  0  0  0  0  0  0  0  0  0
    0.6654   -1.1540    0.0000 C   0  0  0  0  0  0  0  0  0  0  0  0
    1.9962   -1.1540    0.0000 C   0  0  0  0  0  0  0  0  0  0  0  0
    2.6569   -0.0000    0.0000 C   0  0  0  0  0  0  0  0  0  0  0  0
    2.6569   -2.3033    0.0000 C   0  0  0  0  0  0  0  0  0  0  0  0
    3.9877   -0.0000    0.0000 C   0  0  0  0  0  0  0  0  0  0  0  0
    3.9877   -2.3033    0.0000 C   0  0  0  0  0  0  0  0  0  0  0  0
    4.6531   -1.1540    0.0000 C   0  0  0  0  0  0  0  0  0  0  0  0
  1  2  2  0  0  0  0 
  2  3  1  0  0  0  0 
  3  4  2  0  0  0  0 
  3  5  1  0  0  0  0 
  4  6  1  0  0  0  0 
  7  5  2  0  0  0  0 
  6  8  2  0  0  0  0 
  8  7  1  0  0  0  0 
M  END
> <Name>
Benzene, ethenyl-

> <Source>
DSSTox2DMolFile

> <Tox>
2.980

> <CAS>
100-42-5

$$$$

  CDK

  8  8  0  0  0  0  0  0  0  0999 V2000
    0.0000   -0.0000    0.0000 N   0  0  0  0  0  0  0  0  0  0  0  0
    0.6654   -1.1540    0.0000 C   0  0  0  0  0  0  0  0  0  0  0  0
    1.9962   -1.1540    0.0000 C   0  0  0  0  0  0  0  0  0  0  0  0
    2.6569   -0.0000    0.0000 C   0  0  0  0  0  0  0  0  0  0  0  0
    2.6569   -2.3033    0.0000 C   0  0  0  0  0  0  0  0  0  0  0  0
    3.9877   -0.0000    0.0000 C   0  0  0  0  0  0  0  0  0  0  0  0
    3.9877   -2.3033    0.0000 C   0  0  0  0  0  0  0  0  0  0  0  0
    4.6531   -1.1540    0.0000 C   0  0  0  0  0  0  0  0  0  0  0  0
  1  2  1  0  0  0  0 
  2  3  1  0  0  0  0 
  3  4  2  0  0  0  0 
  3  5  1  0  0  0  0 
  4  6  1  0  0  0  0 
  7  5  2  0  0  0  0 
  6  8  2  0  0  0  0 
  8  7  1  0  0  0  0 
M  END
> <Name>
Benzenemethanamine

> <Source>
DSSTox2DMolFile

> <Tox>
2.760

> <CAS>
100-46-9

$$$$

  CDK

  8  8  0  0  0  0  0  0  0  0999 V2000
    0.0000    0.8559    0.0000 N   0  0  0  0  0  0  0  0  0  0  0  0
    0.9566    0.8559    0.0000 C   0  0  0  0  0  0  0  0  0  0  0  0
    2.0139    0.8559    0.0000 C   0  0  0  0  0  0  0  0  0  0  0  0
    2.5174    1.7119    0.0000 C   0  0  0  0  0  0  0  0  0  0  0  0
    2.5174    0.0000    0.0000 C   0  0  0  0  0  0  0  0  0  0  0  0
    3.5244    1.7119    0.0000 C   0  0  0  0  0  0  0  0  0  0  0  0
    3.5244    0.0000    0.0000 C   0  0  0  0  0  0  0  0  0  0  0  0
    4.0279    0.8559    0.0000 N   0  0  0  0  0  0  0  0  0  0  0  0
  1  2  3  0  0  0  0 
  2  3  1  0  0  0  0 
  4  3  2  0  0  0  0 
  3  5  1  0  0  0  0 
  6  4  1  0  0  0  0 
  5  7  2  0  0  0  0 
  8  6  2  0  0  0  0 
  7  8  1  0  0  0  0 
M  END
> <Name>
4-Pyridinecarbonitrile

> <Source>
NIST2DMolFile

> <Tox>
2.180

> <CAS>
100-48-1

$$$$

  CDK

  8  8  0  0  0  0  0  0  0  0999 V2000
    0.0000   -0.0000    0.0000 O   0  0  0  0  0  0  0  0  0  0  0  0
    0.6654   -1.1540    0.0000 C   0  0  0  0  0  0  0  0  0  0  0  0
    1.9962   -1.1540    0.0000 C   0  0  0  0  0  0  0  0  0  0  0  0
    2.6569   -0.0000    0.0000 C   0  0  0  0  0  0  0  0  0  0  0  0
    2.6569   -2.3033    0.0000 C   0  0  0  0  0  0  0  0  0  0  0  0
    3.9877   -0.0000    0.0000 C   0  0  0  0  0  0  0  0  0  0  0  0
    3.9877   -2.3033    0.0000 C   0  0  0  0  0  0  0  0  0  0  0  0
    4.6531   -1.1540    0.0000 C   0  0  0  0  0  0  0  0  0  0  0  0
  1  2  2  0  0  0  0 
  2  3  1  0  0  0  0 
  3  4  2  0  0  0  0 
  3  5  1  0  0  0  0 
  4  6  1  0  0  0  0 
  7  5  2  0  0  0  0 
  6  8  2  0  0  0  0 
  8  7  1  0  0  0  0 
M  END
> <Name>
Benzaldehyde

> <Source>
DSSTox2DMolFile

> <Tox>
2.800

> <CAS>
100-52-7

$$$$

  CDK

  8  8  0  0  0  0  0  0  0  0999 V2000
    0.6574   -2.3137    0.0000 N   0  0  0  0  0  0  0  0  0  0  0  0
    0.0000   -1.1569    0.0000 C   0  0  0  0  0  0  0  0  0  0  0  0
    1.9927   -2.3137    0.0000 C   0  0  0  0  0  0  0  0  0  0  0  0
    0.6574   -0.0000    0.0000 C   0  0  0  0  0  0  0  0  0  0  0  0
    2.6705   -1.1569    0.0000 C   0  0  0  0  0  0  0  0  0  0  0  0
    1.9927   -0.0000    0.0000 C   0  0  0  0  0  0  0  0  0  0  0  0
    4.0006   -1.1569    0.0000 C   0  0  0  0  0  0  0  0  0  0  0  0
    5.0963   -0.4638    0.0000 N   0  0  0  0  0  0  0  0  0  0  0  0
  1  2  2  0  0  0  0 
  1  3  1  0  0  0  0 
  2  4  1  0  0  0  0 
  3  5  2  0  0  0  0 
  4  6  2  0  0  0  0 
  5  6  1  0  0  0  0 
  5  7  1  0  0  0  0 
  7  8  3  0  0  0  0 
M  END
> <Name>
3-Pyridinecarbonitrile

> <Source>
DSSTox2DMolFile

> <Tox>
2.260

> <CAS>
100-54-9

$$$$

  CDK

  8  8  0  0  0  0  0  0  0  0999 V2000
    4.6531   -1.1540    0.0000 C   0  0  0  0  0  0  0  0  0  0  0  0
    3.9877   -2.3033    0.0000 C   0  0  0  0  0  0  0  0  0  0  0  0
    3.9877   -0.0000    0.0000 C   0  0  0  0  0  0  0  0  0  0  0  0
    2.6569   -2.3033    0.0000 C   0  0  0  0  0  0  0  0  0  0  0  0
    2.6569   -0.0000    0.0000 C   0  0  0  0  0  0  0  0  0  0  0  0
    1.9962   -1.1540    0.0000 C   0  0  0  0  0  0  0  0  0  0  0  0
    0.6654   -1.1540    0.0000 N   0  0  0  0  0  0  0  0  0  0  0  0
    0.0000   -0.0000    0.0000 C   0  0  0  0  0  0  0  0  0  0  0  0
  1  2  2  0  0  0  0 
  1  3  1  0  0  0  0 
  2  4  1  0  0  0  0 
  3  5  2  0  0  0  0 
  4  6  2  0  0  0  0 
  6  5  1  0  0  0  0 
  6  7  1  0  0  0  0 
  7  8  1  0  0  0  0 
M  END
> <Name>
Benzenamine, N-methyl-

> <Source>
DSSTox2DMolFile

> <Tox>
3.060

> <CAS>
100-61-8

$$$$

  CDK

  8  8  0  0  0  0  0  0  0  0999 V2000
    0.0000    1.4432    0.0000 C   0  0  0  0  0  0  0  0  0  0  0  0
    0.9278    1.9587    0.0000 S   0  0  0  0  0  0  0  0  0  0  0  0
    1.8040    1.4432    0.0000 C   0  0  0  0  0  0  0  0  0  0  0  0
    2.6803    1.9587    0.0000 C   0  0  0  0  0  0  0  0  0  0  0  0
    1.8040    0.5154    0.0000 C   0  0  0  0  0  0  0  0  0  0  0  0
    3.5565    1.4432    0.0000 C   0  0  0  0  0  0  0  0  0  0  0  0
    2.6803    0.0000    0.0000 C   0  0  0  0  0  0  0  0  0  0  0  0
    3.5565    0.5154    0.0000 C   0  0  0  0  0  0  0  0  0  0  0  0
  1  2  1  0  0  0  0 
  2  3  1  0  0  0  0 
  3  4  2  0  0  0  0 
  5  3  1  0  0  0  0 
  4  6  1  0  0  0  0 
  7  5  2  0  0  0  0 
  6  8  2  0  0  0  0 
  8  7  1  0  0  0  0 
M  END
> <Name>
Sulfide, methyl phenyl (6CI,8CI)

> <Source>
NIST2DMolFile

> <Tox>
3.180

> <CAS>
100-68-5

$$$$

  CDK

  8  8  0  0  0  0  0  0  0  0999 V2000
    3.3250   -2.3036    0.0000 N   0  0  0  0  0  0  0  0  0  0  0  0
    2.6600   -1.1545    0.0000 C   0  0  0  0  0  0  0  0  0  0  0  0
    4.6551   -2.3036    0.0000 C   0  0  0  0  0  0  0  0  0  0  0  0
    1.3300   -1.1545    0.0000 C   0  0  0  0  0  0  0  0  0  0  0  0
    3.3250   -0.0000    0.0000 C   0  0  0  0  0  0  0  0  0  0  0  0
    5.3201   -1.1545    0.0000 C   0  0  0  0  0  0  0  0  0  0  0  0
    0.0000   -1.1545    0.0000 N   0  0  0  0  0  0  0  0  0  0  0  0
    4.6551   -0.0000    0.0000 C   0  0  0  0  0  0  0  0  0  0  0  0
  1  2  2  0  0  0  0 
  1  3  1  0  0  0  0 
  2  4  1  0  0  0  0 
  2  5  1  0  0  0  0 
  6  3  2  0  0  0  0 
  4  7  3  0  0  0  0 
  5  8  2  0  0  0  0 
  8  6  1  0  0  0  0 
M  END
> <Name>
Picolinonitrile (8CI)

> <Source>
DSSTox2DMolFile

> <Tox>
2.170

> <CAS>
100-70-9

$$$$

  CDK

  8  8  0  0  0  0  0  0  0  0999 V2000
    1.9969   -0.0000    0.0000 N   0  0  0  0  0  0  0  0  0  0  0  0
    2.6579   -1.1544    0.0000 C   0  0  0  0  0  0  0  0  0  0  0  0
    0.6656   -0.0000    0.0000 C   0  0  0  0  0  0  0  0  0  0  0  0
    3.9892   -1.1544    0.0000 C   0  0  0  0  0  0  0  0  0  0  0  0
    1.9969   -2.3042    0.0000 C   0  0  0  0  0  0  0  0  0  0  0  0
    0.0000   -1.1544    0.0000 C   0  0  0  0  0  0  0  0  0  0  0  0
    4.6549   -2.3042    0.0000 C   0  0  0  0  0  0  0  0  0  0  0  0
    0.6656   -2.3042    0.0000 C   0  0  0  0  0  0  0  0  0  0  0  0
  1  2  2  0  0  0  0 
  1  3  1  0  0  0  0 
  2  4  1  0  0  0  0 
  2  5  1  0  0  0  0 
  6  3  2  0  0  0  0 
  4  7  1  0  0  0  0 
  5  8  2  0  0  0  0 
  8  6  1  0  0  0  0 
M  END
> <Name>
Pyridine, 2-ethyl-

> <Source>
DSSTox2DMolFile

> <Tox>
2.130

> <CAS>
100-71-0

$$$$

  CDK

  9  9  0  0  0  0  0  0  0  0999 V2000
    0.0000   -0.3731    0.0000 C   0  0  0  0  0  0  0  0  0  0  0  0
    1.0753   -1.1521    0.0000 C   0  0  0  0  0  0  0  0  0  0  0  0
    0.1865   -2.1396    0.0000 C   0  0  0  0  0  0  0  0  0  0  0  0
    1.7391   -0.0000    0.0000 O   0  0  0  0  0  0  0  0  0  0  0  0
    1.9641   -2.1396    0.0000 O   0  0  0  0  0  0  0  0  0  0  0  0
    3.0449   -0.2798    0.0000 C   0  0  0  0  0  0  0  0  0  0  0  0
    3.1820   -1.6020    0.0000 C   0  0  0  0  0  0  0  0  0  0  0  0
    4.3341   -2.2658    0.0000 C   0  0  0  0  0  0  0  0  0  0  0  0
    5.4862   -1.6020    0.0000 O   0  0  0  0  0  0  0  0  0  0  0  0
  1  2  1  0  0  0  0 
  2  3  1  0  0  0  0 
  2  4  1  0  0  0  0 
  2  5  1  0  0  0  0 
  4  6  1  0  0  0  0 
  7  5  1  0  0  0  0 
  6  7  1  0  0  0  0 
  7  8  1  0  0  0  0 
  8  9  1  0  0  0  0 
M  END
> <Name>
1,3-Dioxolane-4-methanol, 2,2-dimethyl-

> <Source>
DSSTox2DMolFile

> <Tox>
1.210

> <CAS>
100-79-8

$$$$

  CDK

  9  9  0  0  0  0  0  0  0  0999 V2000
    0.0000    3.0344    1.1748 O   0  0  0  0  0  0  0  0  0  0  0  0
    0.6767    2.0721    0.8919 C   0  0  0  0  0  0  0  0  0  0  0  0
    2.1520    2.1205    0.7178 C   0  0  0  0  0  0  0  0  0  0  0  0
    2.8557    3.3133    0.8556 C   0  0  0  0  0  0  0  0  0  0  0  0
    2.8290    0.9364    0.4101 C   0  0  0  0  0  0  0  0  0  0  0  0
    4.2481    3.3044    0.6809 C   0  0  0  0  0  0  0  0  0  0  0  0
    4.2069    0.9391    0.2403 C   0  0  0  0  0  0  0  0  0  0  0  0
    4.8772    4.5104    0.8294 O   0  0  0  0  0  0  0  0  0  0  0  0
    4.9290    2.1202    0.3735 C   0  0  0  0  0  0  0  0  0  0  0  0
  1  2  2  0  0  0  0 
  2  3  1  0  0  0  0 
  3  4  2  0  0  0  0 
  5  3  1  0  0  0  0 
  4  6  1  0  0  0  0 
  7  5  2  0  0  0  0 
  6  8  1  0  0  0  0 
  6  9  2  0  0  0  0 
  9  7  1  0  0  0  0 
M  END
> <Name>
Benzaldehyde, 3-hydroxy-

> <Source>
NIST3DMolFile

> <Tox>
3.080

> <CAS>
100-83-4

$$$$

  CDK

 11 11  0  0  0  0  0  0  0  0999 V2000
    1.9466    0.0146    0.0834 C   0  0  0  0  0  0  0  0  0  0  0  0
    0.8815    0.0162   -1.0441 C   0  0  0  0  0  0  0  0  0  0  0  0
    3.3397   -0.0885   -0.5499 C   0  0  0  0  0  0  0  0  0  0  0  0
    1.8551    1.2987    0.9176 C   0  0  0  0  0  0  0  0  0  0  0  0
    1.8190   -1.1286    0.9184 O   0  0  0  0  0  0  0  0  0  0  0  0
   -0.5274    0.0067   -0.5450 C   0  0  0  0  0  0  0  0  0  0  0  0
   -1.1787   -1.2043   -0.2995 C   0  0  0  0  0  0  0  0  0  0  0  0
   -1.2136    1.2062   -0.3423 C   0  0  0  0  0  0  0  0  0  0  0  0
   -2.4949   -1.2129    0.1488 C   0  0  0  0  0  0  0  0  0  0  0  0
   -2.5296    1.1935    0.1051 C   0  0  0  0  0  0  0  0  0  0  0  0
   -3.1717   -0.0152    0.3525 C   0  0  0  0  0  0  0  0  0  0  0  0
  1  2  1  0  0  0  0 
  1  3  1  0  0  0  0 
  1  4  1  0  0  0  0 
  1  5  1  0  0  0  0 
  2  6  1  0  0  0  0 
  6  7  1  0  0  0  0 
  6  8  2  0  0  0  0 
  7  9  2  0  0  0  0 
 10  8  1  0  0  0  0 
  9 11  1  0  0  0  0 
 11 10  2  0  0  0  0 
M  END
> <Name>
Phenethyl alcohol, alpha,alpha-dimethyl-

> <Source>
DougDB3DMolFile

> <Tox>
2.590

> <CAS>
100-86-7

$$$$

  CDK

 13 14  0  0  0  0  0  0  0  0999 V2000
    1.7693    1.5165    0.0000 C   0  0  0  0  0  0  0  0  0  0  0  0
    0.9099    1.9715    0.0000 C   0  0  0  0  0  0  0  0  0  0  0  0
    2.6286    1.9715    0.0000 C   0  0  0  0  0  0  0  0  0  0  0  0
    1.7693    0.5055    0.0000 N   0  0  0  0  0  0  0  0  0  0  0  0
    0.0000    1.5165    0.0000 C   0  0  0  0  0  0  0  0  0  0  0  0
    3.5385    1.5165    0.0000 C   0  0  0  0  0  0  0  0  0  0  0  0
    0.9099    0.0000    0.0000 C   0  0  0  0  0  0  0  0  0  0  0  0
    0.0000    0.5055    0.0000 C   0  0  0  0  0  0  0  0  0  0  0  0
    3.5385    0.5055    0.0000 C   0  0  0  0  0  0  0  0  0  0  0  0
    4.3979    1.9715    0.0000 C   0  0  0  0  0  0  0  0  0  0  0  0
    4.3979    0.0000    0.0000 C   0  0  0  0  0  0  0  0  0  0  0  0
    5.2572    1.5165    0.0000 C   0  0  0  0  0  0  0  0  0  0  0  0
    5.2572    0.5055    0.0000 C   0  0  0  0  0  0  0  0  0  0  0  0
  2  1  2  0  0  0  0 
  1  3  1  0  0  0  0 
  1  4  1  0  0  0  0 
  5  2  1  0  0  0  0 
  3  6  1  0  0  0  0 
  4  7  2  0  0  0  0 
  8  5  2  0  0  0  0 
  9  6  2  0  0  0  0 
  6 10  1  0  0  0  0 
  7  8  1  0  0  0  0 
 11  9  1  0  0  0  0 
 10 12  2  0  0  0  0 
 13 11  2  0  0  0  0 
 12 13  1  0  0  0  0 
M  END
> <Name>
Pyridine, 2-(phenylmethyl)-

> <Source>
NIST2DMolFile

> <Tox>
3.380

> <CAS>
101-82-6

$$$$

  CDK

 13 13  0  0  0  0  0  0  0  0999 V2000
    0.0015    1.5211    0.0000 C   0  0  0  0  0  0  0  0  0  0  0  0
    0.0000    0.5064    0.0000 C   0  0  0  0  0  0  0  0  0  0  0  0
    0.8745    2.0272    0.0000 C   0  0  0  0  0  0  0  0  0  0  0  0
    0.8767    0.0000    0.0000 C   0  0  0  0  0  0  0  0  0  0  0  0
    1.7518    1.5255    0.0000 C   0  0  0  0  0  0  0  0  0  0  0  0
    1.7553    0.5070    0.0000 C   0  0  0  0  0  0  0  0  0  0  0  0
    2.6042    2.0218    0.0000 N   0  0  0  0  0  0  0  0  0  0  0  0
    3.4627    1.5313    0.0000 C   0  0  0  0  0  0  0  0  0  0  0  0
    4.3160    2.0268    0.0000 N   0  0  0  0  0  0  0  0  0  0  0  0
    3.4575    0.5399    0.0000 N   0  0  0  0  0  0  0  0  0  0  0  0
    5.1745    1.5363    0.0000 C   0  0  0  0  0  0  0  0  0  0  0  0
    6.0278    2.0320    0.0000 N   0  0  0  0  0  0  0  0  0  0  0  0
    5.1693    0.5450    0.0000 N   0  0  0  0  0  0  0  0  0  0  0  0
  2  1  2  0  0  0  0 
  1  3  1  0  0  0  0 
  4  2  1  0  0  0  0 
  3  5  2  0  0  0  0 
  6  4  2  0  0  0  0 
  5  7  1  0  0  0  0 
  5  6  1  0  0  0  0 
  7  8  1  0  0  0  0 
  8  9  1  0  0  0  0 
  8 10  2  0  0  0  0 
  9 11  1  0  0  0  0 
 11 12  1  0  0  0  0 
 11 13  2  0  0  0  0 
M  END
> <Name>
Imidodicarbonimidic diamide, N-phenyl-

> <Source>
NIST2DMolFile

> <Tox>
2.610

> <CAS>
102-02-3

$$$$

  CDK

 10  9  0  0  0  0  0  0  0  0999 V2000
    0.0000   -3.4540    0.0000 O   0  0  0  0  0  0  0  0  0  0  0  0
    0.6645   -2.3047    0.0000 C   0  0  0  0  0  0  0  0  0  0  0  0
    1.9934   -2.3047    0.0000 C   0  0  0  0  0  0  0  0  0  0  0  0
    2.6578   -1.1493    0.0000 N   0  0  0  0  0  0  0  0  0  0  0  0
    1.9934   -0.0000    0.0000 C   0  0  0  0  0  0  0  0  0  0  0  0
    3.9928   -1.1493    0.0000 C   0  0  0  0  0  0  0  0  0  0  0  0
    0.6645   -0.0000    0.0000 C   0  0  0  0  0  0  0  0  0  0  0  0
    4.6572   -2.3047    0.0000 C   0  0  0  0  0  0  0  0  0  0  0  0
    0.0000   -1.1493    0.0000 O   0  0  0  0  0  0  0  0  0  0  0  0
    5.9861   -2.3047    0.0000 O   0  0  0  0  0  0  0  0  0  0  0  0
  1  2  1  0  0  0  0 
  2  3  1  0  0  0  0 
  3  4  1  0  0  0  0 
  4  5  1  0  0  0  0 
  4  6  1  0  0  0  0 
  5  7  1  0  0  0  0 
  6  8  1  0  0  0  0 
  7  9  1  0  0  0  0 
  8 10  1  0  0  0  0 
M  END
> <Name>
Ethanol, 2,2',2''-nitrilotris-

> <Source>
DSSTox2DMolFile

> <Tox>
1.251

> <CAS>
102-71-6

$$$$

  CDK

 12 12  0  0  0  0  0  0  0  0999 V2000
    1.9960   -3.6337    0.0000 C   0  0  0  0  0  0  0  0  0  0  0  0
    0.6653   -3.6337    0.0000 C   0  0  0  0  0  0  0  0  0  0  0  0
    2.6613   -2.4858    0.0000 C   0  0  0  0  0  0  0  0  0  0  0  0
    0.0000   -2.4858    0.0000 C   0  0  0  0  0  0  0  0  0  0  0  0
    1.9960   -1.3307    0.0000 C   0  0  0  0  0  0  0  0  0  0  0  0
    3.9846   -2.4858    0.0000 C   0  0  0  0  0  0  0  0  0  0  0  0
    0.6653   -1.3307    0.0000 C   0  0  0  0  0  0  0  0  0  0  0  0
    4.6500   -1.3307    0.0000 C   0  0  0  0  0  0  0  0  0  0  0  0
    5.9806   -1.3307    0.0000 C   0  0  0  0  0  0  0  0  0  0  0  0
    5.9806   -0.0000    0.0000 C   0  0  0  0  0  0  0  0  0  0  0  0
    7.3113   -1.3307    0.0000 C   0  0  0  0  0  0  0  0  0  0  0  0
    5.9806   -2.6613    0.0000 O   0  0  0  0  0  0  0  0  0  0  0  0
  1  2  2  0  0  0  0 
  1  3  1  0  0  0  0 
  2  4  1  0  0  0  0 
  5  3  2  0  0  0  0 
  3  6  1  0  0  0  0 
  4  7  2  0  0  0  0 
  7  5  1  0  0  0  0 
  6  8  1  0  0  0  0 
  8  9  1  0  0  0  0 
  9 10  1  0  0  0  0 
  9 11  1  0  0  0  0 
  9 12  1  0  0  0  0 
M  END
> <Name>
1-Propanol, 1,1-dimethyl-3-phenyl- (8CI)

> <Source>
DSSTox2DMolFile

> <Tox>
2.930

> <CAS>
103-05-9

$$$$

  CDK

 13 13  0  0  0  0  0  0  0  0999 V2000
    2.6629   -2.3084    0.0000 C   0  0  0  0  0  0  0  0  0  0  0  0
    3.9944   -2.3084    0.0000 C   0  0  0  0  0  0  0  0  0  0  0  0
    1.9972   -3.4583    0.0000 O   0  0  0  0  0  0  0  0  0  0  0  0
    1.9972   -1.1585    0.0000 O   0  0  0  0  0  0  0  0  0  0  0  0
    4.6514   -3.4583    0.0000 C   0  0  0  0  0  0  0  0  0  0  0  0
    0.6657   -1.1585    0.0000 C   0  0  0  0  0  0  0  0  0  0  0  0
    5.9829   -3.4583    0.0000 C   0  0  0  0  0  0  0  0  0  0  0  0
    0.0000   -0.0000    0.0000 C   0  0  0  0  0  0  0  0  0  0  0  0
    6.6486   -2.3084    0.0000 C   0  0  0  0  0  0  0  0  0  0  0  0
    6.6486   -4.6082    0.0000 C   0  0  0  0  0  0  0  0  0  0  0  0
    7.9801   -2.3084    0.0000 C   0  0  0  0  0  0  0  0  0  0  0  0
    7.9801   -4.6082    0.0000 C   0  0  0  0  0  0  0  0  0  0  0  0
    8.6458   -3.4583    0.0000 C   0  0  0  0  0  0  0  0  0  0  0  0
  1  2  1  0  0  0  0 
  1  3  2  0  0  0  0 
  1  4  1  0  0  0  0 
  2  5  2  0  0  0  0 
  4  6  1  0  0  0  0 
  5  7  1  0  0  0  0 
  6  8  1  0  0  0  0 
  7  9  1  0  0  0  0 
  7 10  2  0  0  0  0 
  9 11  2  0  0  0  0 
 12 10  1  0  0  0  0 
 11 13  1  0  0  0  0 
 13 12  2  0  0  0  0 
M  END
> <Name>
2-Propenoic acid, 3-phenyl-, ethyl ester

> <Source>
DSSTox2DMolFile

> <Tox>
3.990

> <CAS>
103-36-6

$$$$

  CDK

 13 13  0  0  0  0  0  0  0  0999 V2000
    1.7927    0.7112    0.1297 C   0  0  0  0  0  0  0  0  0  0  0  0
    0.4201    0.1300    0.1095 C   0  0  0  0  0  0  0  0  0  0  0  0
    2.7027   -0.3799   -0.0293 O   0  0  0  0  0  0  0  0  0  0  0  0
   -0.6674    0.9007   -0.0054 C   0  0  0  0  0  0  0  0  0  0  0  0
    4.0413   -0.1130   -0.0292 C   0  0  0  0  0  0  0  0  0  0  0  0
   -2.0220    0.3566   -0.0080 C   0  0  0  0  0  0  0  0  0  0  0  0
    4.8793   -1.3471   -0.2048 C   0  0  0  0  0  0  0  0  0  0  0  0
    4.4233    1.0328    0.1060 O   0  0  0  0  0  0  0  0  0  0  0  0
   -3.1149    1.2220   -0.1253 C   0  0  0  0  0  0  0  0  0  0  0  0
   -2.2473   -1.0191    0.1045 C   0  0  0  0  0  0  0  0  0  0  0  0
   -4.4084    0.7145   -0.1294 C   0  0  0  0  0  0  0  0  0  0  0  0
   -3.5420   -1.5215    0.0998 C   0  0  0  0  0  0  0  0  0  0  0  0
   -4.6243   -0.6555   -0.0171 C   0  0  0  0  0  0  0  0  0  0  0  0
  1  2  1  0  0  0  0 
  1  3  1  0  0  0  0 
  2  4  2  0  0  0  0 
  5  3  1  0  0  0  0 
  4  6  1  0  0  0  0 
  5  7  1  0  0  0  0 
  5  8  2  0  0  0  0 
  6  9  1  0  0  0  0 
  6 10  2  0  0  0  0 
  9 11  2  0  0  0  0 
 12 10  1  0  0  0  0 
 11 13  1  0  0  0  0 
 13 12  2  0  0  0  0 
M  END
> <Name>
2-Propen-1-ol, 3-phenyl-, acetate

> <Source>
DougDB3DMolFile

> <Tox>
3.590

> <CAS>
103-54-8

$$$$

  CDK

  9  9  0  0  0  0  0  0  0  0999 V2000
    2.0190   -3.4571    0.0000 C   0  0  0  0  0  0  0  0  0  0  0  0
    2.7151   -4.6076    0.0000 C   0  0  0  0  0  0  0  0  0  0  0  0
    0.6960   -3.4571    0.0000 C   0  0  0  0  0  0  0  0  0  0  0  0
    2.6518   -2.2952    0.0000 C   0  0  0  0  0  0  0  0  0  0  0  0
    2.0190   -5.7523    0.0000 C   0  0  0  0  0  0  0  0  0  0  0  0
    0.0000   -4.6076    0.0000 C   0  0  0  0  0  0  0  0  0  0  0  0
    1.9903   -1.1447    0.0000 C   0  0  0  0  0  0  0  0  0  0  0  0
    0.6960   -5.7523    0.0000 C   0  0  0  0  0  0  0  0  0  0  0  0
    2.6173   -0.0000    0.0000 Br  0  0  0  0  0  0  0  0  0  0  0  0
  1  2  2  0  0  0  0 
  1  3  1  0  0  0  0 
  1  4  1  0  0  0  0 
  2  5  1  0  0  0  0 
  6  3  2  0  0  0  0 
  4  7  1  0  0  0  0 
  5  8  2  0  0  0  0 
  8  6  1  0  0  0  0 
  7  9  1  0  0  0  0 
M  END
> <Name>
Benzene, (2-bromoethyl)-

> <Source>
DSSTox2DMolFile

> <Tox>
3.420

> <CAS>
103-63-9

$$$$

  CDK

  9  9  0  0  0  0  0  0  0  0999 V2000
    1.9925   -1.1548    0.0000 N   0  0  0  0  0  0  0  0  0  0  0  0
    3.3269   -1.1548    0.0000 C   0  0  0  0  0  0  0  0  0  0  0  0
    1.3283   -0.0000    0.0000 C   0  0  0  0  0  0  0  0  0  0  0  0
    3.9910   -0.0000    0.0000 C   0  0  0  0  0  0  0  0  0  0  0  0
    3.9910   -2.3037    0.0000 C   0  0  0  0  0  0  0  0  0  0  0  0
    0.0000   -0.0000    0.0000 C   0  0  0  0  0  0  0  0  0  0  0  0
    5.3194   -0.0000    0.0000 C   0  0  0  0  0  0  0  0  0  0  0  0
    5.3194   -2.3037    0.0000 C   0  0  0  0  0  0  0  0  0  0  0  0
    5.9836   -1.1548    0.0000 C   0  0  0  0  0  0  0  0  0  0  0  0
  1  2  1  0  0  0  0 
  1  3  1  0  0  0  0 
  2  4  2  0  0  0  0 
  2  5  1  0  0  0  0 
  3  6  1  0  0  0  0 
  4  7  1  0  0  0  0 
  8  5  2  0  0  0  0 
  7  9  2  0  0  0  0 
  9  8  1  0  0  0  0 
M  END
> <Name>
Benzenamine, N-ethyl-

> <Source>
DSSTox2DMolFile

> <Tox>
3.070

> <CAS>
103-69-5

$$$$

  CDK

  9  9  0  0  0  0  0  0  0  0999 V2000
    0.0000   -1.3304    0.0000 S   0  0  0  0  0  0  0  0  0  0  0  0
    1.1518   -1.9984    0.0000 C   0  0  0  0  0  0  0  0  0  0  0  0
    2.3037   -2.6607    0.0000 N   0  0  0  0  0  0  0  0  0  0  0  0
    3.4555   -1.9984    0.0000 C   0  0  0  0  0  0  0  0  0  0  0  0
    3.4555   -0.6681    0.0000 C   0  0  0  0  0  0  0  0  0  0  0  0
    4.6073   -2.6607    0.0000 C   0  0  0  0  0  0  0  0  0  0  0  0
    4.6073   -0.0000    0.0000 C   0  0  0  0  0  0  0  0  0  0  0  0
    5.7591   -1.9984    0.0000 C   0  0  0  0  0  0  0  0  0  0  0  0
    5.7591   -0.6681    0.0000 C   0  0  0  0  0  0  0  0  0  0  0  0
  1  2  2  0  0  0  0 
  2  3  2  0  0  0  0 
  3  4  1  0  0  0  0 
  4  5  2  0  0  0  0 
  4  6  1  0  0  0  0 
  5  7  1  0  0  0  0 
  8  6  2  0  0  0  0 
  7  9  2  0  0  0  0 
  9  8  1  0  0  0  0 
M  END
> <Name>
Isothiocyanic acid, phenyl ester

> <Source>
DSSTox2DMolFile

> <Tox>
4.410

> <CAS>
103-72-0

$$$$

  CDK

 10 10  0  0  0  0  0  0  0  0999 V2000
    1.1520   -0.6682    0.0000 C   0  0  0  0  0  0  0  0  0  0  0  0
    1.1520   -1.9988    0.0000 N   0  0  0  0  0  0  0  0  0  0  0  0
    0.0000   -2.6612    0.0000 C   0  0  0  0  0  0  0  0  0  0  0  0
    2.3041   -2.6612    0.0000 C   0  0  0  0  0  0  0  0  0  0  0  0
    3.4561   -1.9988    0.0000 C   0  0  0  0  0  0  0  0  0  0  0  0
    3.4561   -0.6682    0.0000 C   0  0  0  0  0  0  0  0  0  0  0  0
    4.6082   -2.6612    0.0000 C   0  0  0  0  0  0  0  0  0  0  0  0
    4.6082   -0.0000    0.0000 C   0  0  0  0  0  0  0  0  0  0  0  0
    5.7602   -1.9988    0.0000 C   0  0  0  0  0  0  0  0  0  0  0  0
    5.7602   -0.6682    0.0000 C   0  0  0  0  0  0  0  0  0  0  0  0
  1  2  1  0  0  0  0 
  2  3  1  0  0  0  0 
  2  4  1  0  0  0  0 
  4  5  1  0  0  0  0 
  5  6  2  0  0  0  0 
  5  7  1  0  0  0  0 
  6  8  1  0  0  0  0 
  9  7  2  0  0  0  0 
  8 10  2  0  0  0  0 
 10  9  1  0  0  0  0 
M  END
> <Name>
Benzenemethanamine, N,N-dimethyl-

> <Source>
DSSTox2DMolFile

> <Tox>
3.120

> <CAS>
103-83-3

$$$$

  CDK

 11 11  0  0  0  0  0  0  0  0999 V2000
    3.8512   -1.8702    0.0000 C   0  0  0  0  0  0  0  0  0  0  0  0
    2.9346   -2.8163    0.0000 C   0  0  0  0  0  0  0  0  0  0  0  0
    3.5407   -0.5987    0.0000 C   0  0  0  0  0  0  0  0  0  0  0  0
    5.1522   -2.2102    0.0000 N   0  0  0  0  0  0  0  0  0  0  0  0
    1.6410   -2.4689    0.0000 C   0  0  0  0  0  0  0  0  0  0  0  0
    2.2397   -0.2587    0.0000 C   0  0  0  0  0  0  0  0  0  0  0  0
    6.0983   -1.2862    0.0000 C   0  0  0  0  0  0  0  0  0  0  0  0
    1.2936   -1.2049    0.0000 C   0  0  0  0  0  0  0  0  0  0  0  0
    5.7583   -0.0000    0.0000 C   0  0  0  0  0  0  0  0  0  0  0  0
    7.3919   -1.6114    0.0000 O   0  0  0  0  0  0  0  0  0  0  0  0
    0.0000   -0.8575    0.0000 O   0  0  0  0  0  0  0  0  0  0  0  0
  1  2  2  0  0  0  0 
  1  3  1  0  0  0  0 
  1  4  1  0  0  0  0 
  2  5  1  0  0  0  0 
  3  6  2  0  0  0  0 
  4  7  1  0  0  0  0 
  5  8  2  0  0  0  0 
  6  8  1  0  0  0  0 
  7  9  1  0  0  0  0 
  7 10  2  0  0  0  0 
  8 11  1  0  0  0  0 
M  END
> <Name>
Acetamide, N-(4-hydroxyphenyl)-

> <Source>
DSSTox2DMolFile

> <Tox>
2.180

> <CAS>
103-90-2

$$$$

  CDK

 16 16  0  0  0  0  0  0  0  0999 V2000
    0.0000   -2.6554    0.0000 C   0  0  0  0  0  0  0  0  0  0  0  0
    1.1479   -1.9916    0.0000 C   0  0  0  0  0  0  0  0  0  0  0  0
    2.3097   -2.6554    0.0000 C   0  0  0  0  0  0  0  0  0  0  0  0
    3.4576   -1.9916    0.0000 C   0  0  0  0  0  0  0  0  0  0  0  0
    4.6055   -2.6554    0.0000 C   0  0  0  0  0  0  0  0  0  0  0  0
    5.7672   -1.9916    0.0000 C   0  0  0  0  0  0  0  0  0  0  0  0
    6.9151   -2.6554    0.0000 C   0  0  0  0  0  0  0  0  0  0  0  0
    8.0630   -1.9916    0.0000 C   0  0  0  0  0  0  0  0  0  0  0  0
    9.2248   -2.6554    0.0000 C   0  0  0  0  0  0  0  0  0  0  0  0
   10.3727   -1.9916    0.0000 C   0  0  0  0  0  0  0  0  0  0  0  0
   10.3727   -0.6639    0.0000 C   0  0  0  0  0  0  0  0  0  0  0  0
   11.5206   -2.6554    0.0000 C   0  0  0  0  0  0  0  0  0  0  0  0
   11.5206   -0.0000    0.0000 C   0  0  0  0  0  0  0  0  0  0  0  0
   12.6823   -1.9916    0.0000 C   0  0  0  0  0  0  0  0  0  0  0  0
   12.6823   -0.6639    0.0000 C   0  0  0  0  0  0  0  0  0  0  0  0
   13.8302   -0.0000    0.0000 O   0  0  0  0  0  0  0  0  0  0  0  0
  1  2  1  0  0  0  0 
  2  3  1  0  0  0  0 
  3  4  1  0  0  0  0 
  4  5  1  0  0  0  0 
  5  6  1  0  0  0  0 
  6  7  1  0  0  0  0 
  7  8  1  0  0  0  0 
  8  9  1  0  0  0  0 
  9 10  1  0  0  0  0 
 10 11  2  0  0  0  0 
 10 12  1  0  0  0  0 
 11 13  1  0  0  0  0 
 14 12  2  0  0  0  0 
 13 15  2  0  0  0  0 
 15 14  1  0  0  0  0 
 15 16  1  0  0  0  0 
M  END
> <Name>
Phenol, 4-nonyl-

> <Source>
DSSTox2DMolFile

> <Tox>
5.470

> <CAS>
104-40-5

$$$$

  CDK

 10 10  0  0  0  0  0  0  0  0999 V2000
    0.9729    0.6853   -0.4369 O   0  0  0  0  0  0  0  0  0  0  0  0
    2.2384    0.6354    0.0849 C   0  0  0  0  0  0  0  0  0  0  0  0
    0.4345   -0.6457   -0.5563 C   0  0  0  0  0  0  0  0  0  0  0  0
    2.7072   -0.7766    0.3465 C   0  0  0  0  0  0  0  0  0  0  0  0
    2.7577    1.7157    0.2327 O   0  0  0  0  0  0  0  0  0  0  0  0
    1.5288   -1.6382   -0.0976 C   0  0  0  0  0  0  0  0  0  0  0  0
   -0.8437   -0.7725    0.2753 C   0  0  0  0  0  0  0  0  0  0  0  0
   -1.9875    0.0429   -0.3052 C   0  0  0  0  0  0  0  0  0  0  0  0
   -3.2558   -0.1287    0.5161 C   0  0  0  0  0  0  0  0  0  0  0  0
   -4.3979    0.6786   -0.0582 C   0  0  0  0  0  0  0  0  0  0  0  0
  1  2  1  0  0  0  0 
  1  3  1  0  0  0  0 
  2  4  1  0  0  0  0 
  2  5  2  0  0  0  0 
  6  3  1  0  0  0  0 
  3  7  1  0  0  0  0 
  4  6  1  0  0  0  0 
  7  8  1  0  0  0  0 
  8  9  1  0  0  0  0 
  9 10  1  0  0  0  0 
M  END
> <Name>
2(3H)-Furanone, dihydro-5-butyl-

> <Source>
DougDB3DMolFile

> <Tox>
2.620

> <CAS>
104-50-7

$$$$

  CDK

 10 10  0  0  0  0  0  0  0  0999 V2000
    4.6098   -1.9973    0.0000 C   0  0  0  0  0  0  0  0  0  0  0  0
    3.4556   -2.6608    0.0000 C   0  0  0  0  0  0  0  0  0  0  0  0
    4.6098   -0.6635    0.0000 C   0  0  0  0  0  0  0  0  0  0  0  0
    5.7570   -2.6608    0.0000 C   0  0  0  0  0  0  0  0  0  0  0  0
    2.3014   -1.9973    0.0000 C   0  0  0  0  0  0  0  0  0  0  0  0
    5.7570   -0.0000    0.0000 C   0  0  0  0  0  0  0  0  0  0  0  0
    6.9112   -1.9973    0.0000 C   0  0  0  0  0  0  0  0  0  0  0  0
    1.1542   -2.6608    0.0000 C   0  0  0  0  0  0  0  0  0  0  0  0
    6.9112   -0.6635    0.0000 C   0  0  0  0  0  0  0  0  0  0  0  0
    0.0000   -1.9973    0.0000 C   0  0  0  0  0  0  0  0  0  0  0  0
  1  2  1  0  0  0  0 
  1  3  1  0  0  0  0 
  1  4  2  0  0  0  0 
  2  5  1  0  0  0  0 
  3  6  2  0  0  0  0 
  7  4  1  0  0  0  0 
  5  8  1  0  0  0  0 
  6  9  1  0  0  0  0 
  9  7  2  0  0  0  0 
  8 10  1  0  0  0  0 
M  END
> <Name>
Benzene, butyl-

> <Source>
DSSTox2DMolFile

> <Tox>
4.250

> <CAS>
104-51-8

$$$$

  CDK

 10 10  0  0  0  0  0  0  0  0999 V2000
    0.0000    1.4969    0.0000 C   0  0  0  0  0  0  0  0  0  0  0  0
    0.8482    1.9959    0.0000 C   0  0  0  0  0  0  0  0  0  0  0  0
    0.0000    0.4990    0.0000 C   0  0  0  0  0  0  0  0  0  0  0  0
    1.6965    1.4969    0.0000 C   0  0  0  0  0  0  0  0  0  0  0  0
    0.8482    0.0000    0.0000 C   0  0  0  0  0  0  0  0  0  0  0  0
    1.7464    0.4990    0.0000 C   0  0  0  0  0  0  0  0  0  0  0  0
    2.5946    1.9959    0.0000 C   0  0  0  0  0  0  0  0  0  0  0  0
    3.4429    1.4969    0.0000 C   0  0  0  0  0  0  0  0  0  0  0  0
    4.2911    1.9959    0.0000 C   0  0  0  0  0  0  0  0  0  0  0  0
    5.1893    1.4969    0.0000 Cl  0  0  0  0  0  0  0  0  0  0  0  0
  1  2  2  0  0  0  0 
  3  1  1  0  0  0  0 
  2  4  1  0  0  0  0 
  5  3  2  0  0  0  0 
  4  6  2  0  0  0  0 
  4  7  1  0  0  0  0 
  6  5  1  0  0  0  0 
  7  8  1  0  0  0  0 
  8  9  1  0  0  0  0 
  9 10  1  0  0  0  0 
M  END
> <Name>
3-chloropropylbenzene

> <Source>
NIST2DMolFile

> <Tox>
3.500

> <CAS>
104-52-9

$$$$

  CDK

 10 10  0  0  0  0  0  0  0  0999 V2000
    3.2480    0.4119    0.1915 C   0  0  0  0  0  0  0  0  0  0  0  0
    1.8310   -0.0576    0.1255 C   0  0  0  0  0  0  0  0  0  0  0  0
    4.1703   -0.5609   -0.2231 O   0  0  0  0  0  0  0  0  0  0  0  0
    0.7980    0.7889    0.0574 C   0  0  0  0  0  0  0  0  0  0  0  0
   -0.5906    0.3395    0.0235 C   0  0  0  0  0  0  0  0  0  0  0  0
   -0.9098   -1.0210    0.0790 C   0  0  0  0  0  0  0  0  0  0  0  0
   -1.6210    1.2813   -0.0659 C   0  0  0  0  0  0  0  0  0  0  0  0
   -2.2354   -1.4333    0.0452 C   0  0  0  0  0  0  0  0  0  0  0  0
   -2.9458    0.8639   -0.0994 C   0  0  0  0  0  0  0  0  0  0  0  0
   -3.2554   -0.4916   -0.0441 C   0  0  0  0  0  0  0  0  0  0  0  0
  1  2  1  0  0  0  0 
  1  3  1  0  0  0  0 
  2  4  2  0  0  0  0 
  4  5  1  0  0  0  0 
  5  6  1  0  0  0  0 
  5  7  2  0  0  0  0 
  6  8  2  0  0  0  0 
  9  7  1  0  0  0  0 
  8 10  1  0  0  0  0 
 10  9  2  0  0  0  0 
M  END
> <Name>
2-Propen-1-ol, 3-phenyl-

> <Source>
DougDB3DMolFile

> <Tox>
2.920

> <CAS>
104-54-1

$$$$

  CDK

 11 11  0  0  0  0  0  0  0  0999 V2000
    2.3475   -0.0000    0.0000 O   0  0  0  0  0  0  0  0  0  0  0  0
    3.4245   -0.7733    0.0000 C   0  0  0  0  0  0  0  0  0  0  0  0
    1.2704   -0.7733    0.0000 C   0  0  0  0  0  0  0  0  0  0  0  0
    3.0195   -2.0437    0.0000 C   0  0  0  0  0  0  0  0  0  0  0  0
    4.6949   -0.3682    0.0000 C   0  0  0  0  0  0  0  0  0  0  0  0
    1.6846   -2.0437    0.0000 C   0  0  0  0  0  0  0  0  0  0  0  0
    0.0000   -0.3682    0.0000 O   0  0  0  0  0  0  0  0  0  0  0  0
    5.6891   -1.2520    0.0000 C   0  0  0  0  0  0  0  0  0  0  0  0
    6.9595   -0.8561    0.0000 C   0  0  0  0  0  0  0  0  0  0  0  0
    7.9537   -1.7399    0.0000 C   0  0  0  0  0  0  0  0  0  0  0  0
    9.2057   -1.3348    0.0000 C   0  0  0  0  0  0  0  0  0  0  0  0
  1  2  1  0  0  0  0 
  1  3  1  0  0  0  0 
  2  4  1  0  0  0  0 
  2  5  1  0  0  0  0 
  3  6  1  0  0  0  0 
  3  7  2  0  0  0  0 
  4  6  1  0  0  0  0 
  5  8  1  0  0  0  0 
  8  9  1  0  0  0  0 
  9 10  1  0  0  0  0 
 10 11  1  0  0  0  0 
M  END
> <Name>
2(3H)-Furanone, dihydro-5-pentyl-

> <Source>
DSSTox2DMolFile

> <Tox>
3.014

> <CAS>
104-61-0

$$$$

  CDK

  9  8  0  0  0  0  0  0  0  0999 V2000
    0.0000   -4.6059    0.0000 C   0  0  0  0  0  0  0  0  0  0  0  0
    0.6657   -3.4484    0.0000 C   0  0  0  0  0  0  0  0  0  0  0  0
    1.9971   -3.4484    0.0000 C   0  0  0  0  0  0  0  0  0  0  0  0
    2.6628   -2.3089    0.0000 C   0  0  0  0  0  0  0  0  0  0  0  0
    4.0001   -2.3089    0.0000 C   0  0  0  0  0  0  0  0  0  0  0  0
    4.6658   -3.4484    0.0000 C   0  0  0  0  0  0  0  0  0  0  0  0
    4.6658   -1.1515    0.0000 C   0  0  0  0  0  0  0  0  0  0  0  0
    5.9972   -3.4484    0.0000 O   0  0  0  0  0  0  0  0  0  0  0  0
    4.0001   -0.0000    0.0000 C   0  0  0  0  0  0  0  0  0  0  0  0
  1  2  1  0  0  0  0 
  2  3  1  0  0  0  0 
  3  4  1  0  0  0  0 
  4  5  1  0  0  0  0 
  5  6  1  0  0  0  0 
  5  7  1  0  0  0  0 
  6  8  1  0  0  0  0 
  7  9  1  0  0  0  0 
M  END
> <Name>
1-Hexanol, 2-ethyl-

> <Source>
DSSTox2DMolFile

> <Tox>
3.167

> <CAS>
104-76-7

$$$$

  CDK

  9  9  0  0  0  0  0  0  0  0999 V2000
    0.0000    0.0000    0.0000 N   0  0  0  0  0  0  0  0  0  0  0  0
    0.5039    0.8566    0.0000 C   0  0  0  0  0  0  0  0  0  0  0  0
    1.5116    0.8566    0.0000 C   0  0  0  0  0  0  0  0  0  0  0  0
    2.0155    1.7132    0.0000 C   0  0  0  0  0  0  0  0  0  0  0  0
    2.0155    0.0000    0.0000 C   0  0  0  0  0  0  0  0  0  0  0  0
    3.0233    1.7132    0.0000 C   0  0  0  0  0  0  0  0  0  0  0  0
    3.0233    0.0000    0.0000 C   0  0  0  0  0  0  0  0  0  0  0  0
    3.5271    0.8566    0.0000 C   0  0  0  0  0  0  0  0  0  0  0  0
    4.5349    0.8566    0.0000 C   0  0  0  0  0  0  0  0  0  0  0  0
  1  2  1  0  0  0  0 
  2  3  1  0  0  0  0 
  4  3  2  0  0  0  0 
  3  5  1  0  0  0  0 
  6  4  1  0  0  0  0 
  5  7  2  0  0  0  0 
  8  6  2  0  0  0  0 
  7  8  1  0  0  0  0 
  8  9  1  0  0  0  0 
M  END
> <Name>
Benzylamine, p-methyl- (8CI)

> <Source>
NIST2DMolFile

> <Tox>
2.990

> <CAS>
104-84-7

$$$$

  CDK

  9  9  0  0  0  0  0  0  0  0999 V2000
    0.0000   -1.1509    0.0000 N   0  0  0  0  0  0  0  0  0  0  0  0
    1.3305   -1.1509    0.0000 C   0  0  0  0  0  0  0  0  0  0  0  0
    2.6611   -1.1509    0.0000 C   0  0  0  0  0  0  0  0  0  0  0  0
    3.3263   -0.0000    0.0000 C   0  0  0  0  0  0  0  0  0  0  0  0
    3.3263   -2.3018    0.0000 C   0  0  0  0  0  0  0  0  0  0  0  0
    4.6568   -0.0000    0.0000 C   0  0  0  0  0  0  0  0  0  0  0  0
    4.6568   -2.3018    0.0000 C   0  0  0  0  0  0  0  0  0  0  0  0
    5.3221   -1.1509    0.0000 C   0  0  0  0  0  0  0  0  0  0  0  0
    6.6526   -1.1509    0.0000 C   0  0  0  0  0  0  0  0  0  0  0  0
  1  2  3  0  0  0  0 
  2  3  1  0  0  0  0 
  3  4  2  0  0  0  0 
  3  5  1  0  0  0  0 
  4  6  1  0  0  0  0 
  7  5  2  0  0  0  0 
  6  8  2  0  0  0  0 
  8  7  1  0  0  0  0 
  8  9  1  0  0  0  0 
M  END
> <Name>
Benzonitrile, 4-methyl-

> <Source>
DSSTox2DMolFile

> <Tox>
2.900

> <CAS>
104-85-8

$$$$

  CDK

  9  9  0  0  0  0  0  0  0  0999 V2000
    0.9010    1.5017    0.0000 C   0  0  0  0  0  0  0  0  0  0  0  0
    1.7520    2.0022    0.0000 C   0  0  0  0  0  0  0  0  0  0  0  0
    0.9010    0.5006    0.0000 C   0  0  0  0  0  0  0  0  0  0  0  0
    2.6029    1.5017    0.0000 C   0  0  0  0  0  0  0  0  0  0  0  0
    1.7520    0.0000    0.0000 C   0  0  0  0  0  0  0  0  0  0  0  0
    0.0000    0.0000    0.0000 Cl  0  0  0  0  0  0  0  0  0  0  0  0
    2.6029    0.5006    0.0000 C   0  0  0  0  0  0  0  0  0  0  0  0
    3.4539    2.0022    0.0000 C   0  0  0  0  0  0  0  0  0  0  0  0
    4.3549    1.5017    0.0000 N   0  0  0  0  0  0  0  0  0  0  0  0
  1  2  2  0  0  0  0 
  3  1  1  0  0  0  0 
  2  4  1  0  0  0  0 
  5  3  2  0  0  0  0 
  3  6  1  0  0  0  0 
  4  7  2  0  0  0  0 
  4  8  1  0  0  0  0 
  7  5  1  0  0  0  0 
  8  9  1  0  0  0  0 
M  END
> <Name>
Benzylamine, p-chloro- (8CI)

> <Source>
NIST2DMolFile

> <Tox>
3.160

> <CAS>
104-86-9

$$$$

  CDK

  9  9  0  0  0  0  0  0  0  0999 V2000
   -0.9576   -0.2193   -0.0003 C   0  0  0  0  0  0  0  0  0  0  0  0
   -0.1262   -1.3425   -0.0013 C   0  0  0  0  0  0  0  0  0  0  0  0
   -0.3913    1.0559   -0.0027 C   0  0  0  0  0  0  0  0  0  0  0  0
   -2.4274   -0.4169    0.0021 C   0  0  0  0  0  0  0  0  0  0  0  0
    1.2532   -1.1915   -0.0039 C   0  0  0  0  0  0  0  0  0  0  0  0
    0.9904    1.2063   -0.0053 C   0  0  0  0  0  0  0  0  0  0  0  0
   -3.2294    0.4900    0.0035 O   0  0  0  0  0  0  0  0  0  0  0  0
    1.8213    0.0852   -0.0045 C   0  0  0  0  0  0  0  0  0  0  0  0
    3.2978    0.2439    0.0077 C   0  0  0  0  0  0  0  0  0  0  0  0
  1  2  1  0  0  0  0 
  1  3  2  0  0  0  0 
  1  4  1  0  0  0  0 
  2  5  2  0  0  0  0 
  3  6  1  0  0  0  0 
  4  7  2  0  0  0  0 
  8  5  1  0  0  0  0 
  8  6  2  0  0  0  0 
  8  9  1  0  0  0  0 
M  END
> <Name>
Benzaldehyde, 4-methyl-

> <Source>
DougDB3DMolFile

> <Tox>
2.943

> <CAS>
104-87-0

$$$$

  CDK

  9  9  0  0  0  0  0  0  0  0999 V2000
    5.9806   -1.1542    0.0000 Cl  0  0  0  0  0  0  0  0  0  0  0  0
    4.6529   -1.1542    0.0000 C   0  0  0  0  0  0  0  0  0  0  0  0
    3.9890   -2.3025    0.0000 C   0  0  0  0  0  0  0  0  0  0  0  0
    3.9890   -0.0000    0.0000 C   0  0  0  0  0  0  0  0  0  0  0  0
    2.6554   -2.3025    0.0000 C   0  0  0  0  0  0  0  0  0  0  0  0
    2.6554   -0.0000    0.0000 C   0  0  0  0  0  0  0  0  0  0  0  0
    1.9915   -1.1542    0.0000 C   0  0  0  0  0  0  0  0  0  0  0  0
    0.6638   -1.1542    0.0000 C   0  0  0  0  0  0  0  0  0  0  0  0
    0.0000   -0.0000    0.0000 O   0  0  0  0  0  0  0  0  0  0  0  0
  1  2  1  0  0  0  0 
  2  3  2  0  0  0  0 
  2  4  1  0  0  0  0 
  3  5  1  0  0  0  0 
  4  6  2  0  0  0  0 
  5  7  2  0  0  0  0 
  7  6  1  0  0  0  0 
  7  8  1  0  0  0  0 
  8  9  2  0  0  0  0 
M  END
> <Name>
Benzaldehyde, 4-chloro-

> <Source>
DSSTox2DMolFile

> <Tox>
3.400

> <CAS>
104-88-1

$$$$

  CDK

  9  9  0  0  0  0  0  0  0  0999 V2000
    3.9890   -0.0000    0.0000 N   0  0  0  0  0  0  0  0  0  0  0  0
    4.6529   -1.1542    0.0000 C   0  0  0  0  0  0  0  0  0  0  0  0
    2.6554   -0.0000    0.0000 C   0  0  0  0  0  0  0  0  0  0  0  0
    5.9806   -1.1542    0.0000 C   0  0  0  0  0  0  0  0  0  0  0  0
    3.9890   -2.3025    0.0000 C   0  0  0  0  0  0  0  0  0  0  0  0
    1.9915   -1.1542    0.0000 C   0  0  0  0  0  0  0  0  0  0  0  0
    2.6554   -2.3025    0.0000 C   0  0  0  0  0  0  0  0  0  0  0  0
    0.6638   -1.1542    0.0000 C   0  0  0  0  0  0  0  0  0  0  0  0
    0.0000   -0.0000    0.0000 C   0  0  0  0  0  0  0  0  0  0  0  0
  1  2  2  0  0  0  0 
  1  3  1  0  0  0  0 
  2  4  1  0  0  0  0 
  2  5  1  0  0  0  0 
  6  3  2  0  0  0  0 
  5  7  2  0  0  0  0 
  7  6  1  0  0  0  0 
  6  8  1  0  0  0  0 
  8  9  1  0  0  0  0 
M  END
> <Name>
Pyridine, 5-ethyl-2-methyl-

> <Source>
DSSTox2DMolFile

> <Tox>
2.820

> <CAS>
104-90-5

$$$$

  CDK

  9  9  0  0  0  0  0  0  0  0999 V2000
    0.0000   -0.0000    0.0000 O   0  0  0  0  0  0  0  0  0  0  0  0
    0.6638   -1.1542    0.0000 N   0  0  0  0  0  0  0  0  0  0  0  0
    1.9915   -1.1542    0.0000 C   0  0  0  0  0  0  0  0  0  0  0  0
    2.6554   -0.0000    0.0000 C   0  0  0  0  0  0  0  0  0  0  0  0
    2.6554   -2.3025    0.0000 C   0  0  0  0  0  0  0  0  0  0  0  0
    3.9890   -0.0000    0.0000 C   0  0  0  0  0  0  0  0  0  0  0  0
    3.9890   -2.3025    0.0000 C   0  0  0  0  0  0  0  0  0  0  0  0
    4.6529   -1.1542    0.0000 C   0  0  0  0  0  0  0  0  0  0  0  0
    5.9806   -1.1542    0.0000 O   0  0  0  0  0  0  0  0  0  0  0  0
  1  2  2  0  0  0  0 
  2  3  1  0  0  0  0 
  3  4  2  0  0  0  0 
  3  5  1  0  0  0  0 
  4  6  1  0  0  0  0 
  7  5  2  0  0  0  0 
  6  8  2  0  0  0  0 
  8  7  1  0  0  0  0 
  8  9  1  0  0  0  0 
M  END
> <Name>
p-Quinone monooxime

> <Source>
DSSTox2DMolFile

> <Tox>
3.650

> <CAS>
104-91-6

$$$$

  CDK

  9  9  0  0  0  0  0  0  0  0999 V2000
    3.9905   -1.1529    0.0000 C   0  0  0  0  0  0  0  0  0  0  0  0
    3.3155   -2.3059    0.0000 C   0  0  0  0  0  0  0  0  0  0  0  0
    3.3155   -0.0000    0.0000 C   0  0  0  0  0  0  0  0  0  0  0  0
    5.3167   -1.1529    0.0000 O   0  0  0  0  0  0  0  0  0  0  0  0
    1.9833   -2.3059    0.0000 C   0  0  0  0  0  0  0  0  0  0  0  0
    1.9833   -0.0000    0.0000 C   0  0  0  0  0  0  0  0  0  0  0  0
    5.9738   -0.0000    0.0000 C   0  0  0  0  0  0  0  0  0  0  0  0
    1.3322   -1.1529    0.0000 C   0  0  0  0  0  0  0  0  0  0  0  0
    0.0000   -1.1529    0.0000 C   0  0  0  0  0  0  0  0  0  0  0  0
  1  2  2  0  0  0  0 
  1  3  1  0  0  0  0 
  1  4  1  0  0  0  0 
  2  5  1  0  0  0  0 
  6  3  2  0  0  0  0 
  4  7  1  0  0  0  0 
  5  8  2  0  0  0  0 
  8  6  1  0  0  0  0 
  8  9  1  0  0  0  0 
M  END
> <Name>
Benzene, 1-methoxy-4-methyl-

> <Source>
DSSTox2DMolFile

> <Tox>
3.250

> <CAS>
104-93-8

$$$$

  CDK

 10 10  0  0  0  0  0  0  0  0999 V2000
    0.0000    0.8559    0.0000 N   0  0  0  0  0  0  0  0  0  0  0  0
    0.9566    0.8559    0.0000 C   0  0  0  0  0  0  0  0  0  0  0  0
    2.0139    0.8559    0.0000 C   0  0  0  0  0  0  0  0  0  0  0  0
    2.5174    1.7119    0.0000 C   0  0  0  0  0  0  0  0  0  0  0  0
    2.5174    0.0000    0.0000 C   0  0  0  0  0  0  0  0  0  0  0  0
    3.5244    1.7119    0.0000 C   0  0  0  0  0  0  0  0  0  0  0  0
    3.5244    0.0000    0.0000 C   0  0  0  0  0  0  0  0  0  0  0  0
    4.0279    0.8559    0.0000 C   0  0  0  0  0  0  0  0  0  0  0  0
    5.0349    0.8559    0.0000 C   0  0  0  0  0  0  0  0  0  0  0  0
    5.5383    1.7119    0.0000 O   0  0  0  0  0  0  0  0  0  0  0  0
  1  2  3  0  0  0  0 
  2  3  1  0  0  0  0 
  4  3  2  0  0  0  0 
  3  5  1  0  0  0  0 
  6  4  1  0  0  0  0 
  5  7  2  0  0  0  0 
  8  6  2  0  0  0  0 
  7  8  1  0  0  0  0 
  8  9  1  0  0  0  0 
  9 10  2  0  0  0  0 
M  END
> <Name>
Terephthalaldehydonitrile (8CI)

> <Source>
NIST2DMolFile

> <Tox>
3.040

> <CAS>
105-07-7

$$$$

  CDK

  7  6  0  0  0  0  0  0  0  0999 V2000
    4.1533    1.5729    1.8947 C   0  0  0  0  0  0  0  0  0  0  0  0
    2.8078    2.2505    1.5863 C   0  0  0  0  0  0  0  0  0  0  0  0
    5.2980    2.5732    1.9269 C   0  0  0  0  0  0  0  0  0  0  0  0
    1.7040    1.3656    1.9404 C   0  0  0  0  0  0  0  0  0  0  0  0
    2.7976    2.5772    0.2062 O   0  0  0  0  0  0  0  0  0  0  0  0
    6.6054    1.8967    2.2733 C   0  0  0  0  0  0  0  0  0  0  0  0
    0.8043    0.6443    2.2387 C   0  0  0  0  0  0  0  0  0  0  0  0
  1  2  1  0  0  0  0 
  1  3  1  0  0  0  0 
  2  4  1  0  0  0  0 
  2  5  1  0  0  0  0 
  3  6  1  0  0  0  0 
  4  7  3  0  0  0  0 
M  END
> <Name>
1-Hexyn-3-ol

> <Source>
NIST3DMolFile

> <Tox>
3.657

> <CAS>
105-31-7

$$$$

  CDK

  7  6  0  0  0  0  0  0  0  0999 V2000
    3.4607   -1.3266    0.0000 C   0  0  0  0  0  0  0  0  0  0  0  0
    3.4607   -0.0000    0.0000 O   0  0  0  0  0  0  0  0  0  0  0  0
    4.6142   -1.9841    0.0000 O   0  0  0  0  0  0  0  0  0  0  0  0
    2.3071   -1.9841    0.0000 C   0  0  0  0  0  0  0  0  0  0  0  0
    5.7678   -1.3266    0.0000 C   0  0  0  0  0  0  0  0  0  0  0  0
    1.1536   -1.3093    0.0000 C   0  0  0  0  0  0  0  0  0  0  0  0
    0.0000   -0.6402    0.0000 N   0  0  0  0  0  0  0  0  0  0  0  0
  1  2  2  0  0  0  0 
  1  3  1  0  0  0  0 
  1  4  1  0  0  0  0 
  3  5  1  0  0  0  0 
  4  6  1  0  0  0  0 
  6  7  3  0  0  0  0 
M  END
> <Name>
methyl 2-cyanoacetate

> <Source>
DSSTox2DMolFile

> <Tox>
1.660

> <CAS>
105-34-0

$$$$

  CDK

  7  6  0  0  0  0  0  0  0  0999 V2000
    2.6592   -0.0000    0.0000 O   0  0  0  0  0  0  0  0  0  0  0  0
    1.9979   -1.1550    0.0000 C   0  0  0  0  0  0  0  0  0  0  0  0
    2.6592   -2.3053    0.0000 O   0  0  0  0  0  0  0  0  0  0  0  0
    0.6660   -1.1550    0.0000 C   0  0  0  0  0  0  0  0  0  0  0  0
    3.9912   -2.3053    0.0000 C   0  0  0  0  0  0  0  0  0  0  0  0
    0.0000   -2.3053    0.0000 Br  0  0  0  0  0  0  0  0  0  0  0  0
    4.6571   -1.1550    0.0000 C   0  0  0  0  0  0  0  0  0  0  0  0
  1  2  2  0  0  0  0 
  2  3  1  0  0  0  0 
  2  4  1  0  0  0  0 
  3  5  1  0  0  0  0 
  4  6  1  0  0  0  0 
  5  7  1  0  0  0  0 
M  END
> <Name>
Acetic acid, 2-bromo-, ethyl ester

> <Source>
DSSTox2DMolFile

> <Tox>
5.678

> <CAS>
105-36-2

$$$$

  CDK

  7  6  0  0  0  0  0  0  0  0999 V2000
   -0.5202    0.1666    0.0155 C   0  0  0  0  0  0  0  0  0  0  0  0
   -1.6331   -0.8569    0.0343 C   0  0  0  0  0  0  0  0  0  0  0  0
   -0.5983    1.3790    0.0121 O   0  0  0  0  0  0  0  0  0  0  0  0
    0.7138   -0.4196    0.0046 O   0  0  0  0  0  0  0  0  0  0  0  0
   -3.0058   -0.2293   -0.0408 C   0  0  0  0  0  0  0  0  0  0  0  0
    1.8691    0.4207   -0.0076 C   0  0  0  0  0  0  0  0  0  0  0  0
    3.0724   -0.5024   -0.0150 C   0  0  0  0  0  0  0  0  0  0  0  0
  1  2  1  0  0  0  0 
  1  3  2  0  0  0  0 
  1  4  1  0  0  0  0 
  2  5  1  0  0  0  0 
  4  6  1  0  0  0  0 
  6  7  1  0  0  0  0 
M  END
> <Name>
Propanoic acid, ethyl ester

> <Source>
DougDB3DMolFile

> <Tox>
2.055

> <CAS>
105-37-3

$$$$

  CDK

  7  6  0  0  0  0  0  0  0  0999 V2000
    0.4600    0.1662    0.0006 C   0  0  0  0  0  0  0  0  0  0  0  0
    1.5911   -0.8371    0.0013 C   0  0  0  0  0  0  0  0  0  0  0  0
    0.5141    1.3774    0.0005 O   0  0  0  0  0  0  0  0  0  0  0  0
   -0.7633   -0.4641    0.0001 O   0  0  0  0  0  0  0  0  0  0  0  0
    2.9528   -0.1813   -0.0016 C   0  0  0  0  0  0  0  0  0  0  0  0
   -1.9278    0.2871   -0.0004 C   0  0  0  0  0  0  0  0  0  0  0  0
   -3.0713   -0.3983   -0.0006 C   0  0  0  0  0  0  0  0  0  0  0  0
  1  2  1  0  0  0  0 
  1  3  2  0  0  0  0 
  1  4  1  0  0  0  0 
  2  5  1  0  0  0  0 
  4  6  1  0  0  0  0 
  6  7  2  0  0  0  0 
M  END
> <Name>
Propanoic acid, ethenyl ester

> <Source>
DougDB3DMolFile

> <Tox>
2.347

> <CAS>
105-38-4

$$$$

  CDK

  7  6  0  0  0  0  0  0  0  0999 V2000
    1.1524   -2.0018    0.0000 C   0  0  0  0  0  0  0  0  0  0  0  0
    1.1524   -3.3287    0.0000 O   0  0  0  0  0  0  0  0  0  0  0  0
    2.3048   -1.3269    0.0000 O   0  0  0  0  0  0  0  0  0  0  0  0
    0.0000   -1.3269    0.0000 C   0  0  0  0  0  0  0  0  0  0  0  0
    3.4389   -2.0018    0.0000 C   0  0  0  0  0  0  0  0  0  0  0  0
    0.0000   -0.0000    0.0000 Cl  0  0  0  0  0  0  0  0  0  0  0  0
    4.5913   -1.3269    0.0000 C   0  0  0  0  0  0  0  0  0  0  0  0
  1  2  2  0  0  0  0 
  1  3  1  0  0  0  0 
  1  4  1  0  0  0  0 
  3  5  1  0  0  0  0 
  4  6  1  0  0  0  0 
  5  7  1  0  0  0  0 
M  END
> <Name>
Acetic acid, chloro-, ethyl ester

> <Source>
DSSTox2DMolFile

> <Tox>
4.056

> <CAS>
105-39-5

$$$$

  CDK

  8  7  0  0  0  0  0  0  0  0999 V2000
    4.4867    2.6893    2.3726 C   0  0  0  0  0  0  0  0  0  0  0  0
    3.2161    2.1494    1.7119 C   0  0  0  0  0  0  0  0  0  0  0  0
    5.7124    1.8926    1.9764 C   0  0  0  0  0  0  0  0  0  0  0  0
    2.0856    3.1716    1.8697 C   0  0  0  0  0  0  0  0  0  0  0  0
    2.8011    0.8117    2.3061 C   0  0  0  0  0  0  0  0  0  0  0  0
    6.0664    0.7572    2.6239 O   0  0  0  0  0  0  0  0  0  0  0  0
    6.5106    2.1511    1.1012 O   0  0  0  0  0  0  0  0  0  0  0  0
    0.8580    2.7696    1.0822 C   0  0  0  0  0  0  0  0  0  0  0  0
  1  2  1  0  0  0  0 
  1  3  1  0  0  0  0 
  2  4  1  0  0  0  0 
  2  5  1  0  0  0  0 
  3  6  1  0  0  0  0 
  3  7  2  0  0  0  0 
  4  8  1  0  0  0  0 
M  END
> <Name>
Pentanoic acid, 3-methyl-

> <Source>
NIST3DMolFile

> <Tox>
2.767

> <CAS>
105-43-1

$$$$

  CDK

  8  7  0  0  0  0  0  0  0  0999 V2000
    4.0679    2.3175    1.9376 O   0  0  0  0  0  0  0  0  0  0  0  0
    2.8118    2.1684    1.2492 C   0  0  0  0  0  0  0  0  0  0  0  0
    5.2360    2.0577    1.2844 C   0  0  0  0  0  0  0  0  0  0  0  0
    1.8868    3.2340    1.8586 C   0  0  0  0  0  0  0  0  0  0  0  0
    2.2819    0.7563    1.4737 C   0  0  0  0  0  0  0  0  0  0  0  0
    6.4397    2.3020    2.1531 C   0  0  0  0  0  0  0  0  0  0  0  0
    5.2279    1.6716    0.1317 O   0  0  0  0  0  0  0  0  0  0  0  0
    0.6214    3.4022    1.0482 C   0  0  0  0  0  0  0  0  0  0  0  0
  1  2  1  0  0  0  0 
  1  3  1  0  0  0  0 
  2  4  1  0  0  0  0 
  2  5  1  0  0  0  0 
  3  6  1  0  0  0  0 
  3  7  2  0  0  0  0 
  4  8  1  0  0  0  0 
M  END
> <Name>
Acetic acid, 1-methylpropyl ester

> <Source>
NIST3DMolFile

> <Tox>
2.321

> <CAS>
105-46-4

$$$$

  CDK

 11 10  0  0  0  0  0  0  0  0999 V2000
    1.9932   -0.0000    0.0000 C   0  0  0  0  0  0  0  0  0  0  0  0
    0.6625   -0.0000    0.0000 C   0  0  0  0  0  0  0  0  0  0  0  0
    0.0000   -1.1521    0.0000 O   0  0  0  0  0  0  0  0  0  0  0  0
    0.6625   -2.3043    0.0000 C   0  0  0  0  0  0  0  0  0  0  0  0
    1.9932   -2.3043    0.0000 O   0  0  0  0  0  0  0  0  0  0  0  0
    0.0000   -3.4564    0.0000 C   0  0  0  0  0  0  0  0  0  0  0  0
    0.6625   -4.6086    0.0000 C   0  0  0  0  0  0  0  0  0  0  0  0
    0.0000   -5.7607    0.0000 O   0  0  0  0  0  0  0  0  0  0  0  0
    1.9932   -4.6086    0.0000 O   0  0  0  0  0  0  0  0  0  0  0  0
    2.6615   -5.7607    0.0000 C   0  0  0  0  0  0  0  0  0  0  0  0
    3.9922   -5.7607    0.0000 C   0  0  0  0  0  0  0  0  0  0  0  0
  1  2  1  0  0  0  0 
  2  3  1  0  0  0  0 
  3  4  1  0  0  0  0 
  4  5  2  0  0  0  0 
  4  6  1  0  0  0  0 
  6  7  1  0  0  0  0 
  7  8  2  0  0  0  0 
  7  9  1  0  0  0  0 
  9 10  1  0  0  0  0 
 10 11  1  0  0  0  0 
M  END
> <Name>
Propanedioic acid, diethyl ester

> <Source>
DSSTox2DMolFile

> <Tox>
2.003

> <CAS>
105-53-3

$$$$

  CDK

  8  7  0  0  0  0  0  0  0  0999 V2000
    2.3109   -2.6509    0.0000 C   0  0  0  0  0  0  0  0  0  0  0  0
    2.3109   -3.9821    0.0000 O   0  0  0  0  0  0  0  0  0  0  0  0
    3.4519   -1.9939    0.0000 O   0  0  0  0  0  0  0  0  0  0  0  0
    1.1583   -1.9939    0.0000 C   0  0  0  0  0  0  0  0  0  0  0  0
    4.6045   -2.6509    0.0000 C   0  0  0  0  0  0  0  0  0  0  0  0
    1.1583   -0.6570    0.0000 C   0  0  0  0  0  0  0  0  0  0  0  0
    5.7628   -1.9766    0.0000 C   0  0  0  0  0  0  0  0  0  0  0  0
    0.0000   -0.0000    0.0000 N   0  0  0  0  0  0  0  0  0  0  0  0
  1  2  2  0  0  0  0 
  1  3  1  0  0  0  0 
  1  4  1  0  0  0  0 
  3  5  1  0  0  0  0 
  4  6  1  0  0  0  0 
  5  7  1  0  0  0  0 
  6  8  3  0  0  0  0 
M  END
> <Name>
Acetic acid, 2-cyano-, ethyl ester

> <Source>
DSSTox2DMolFile

> <Tox>
1.770

> <CAS>
105-56-6

$$$$

  CDK

  8  7  0  0  0  0  0  0  0  0999 V2000
    3.4577   -1.3312    0.0000 N   0  0  0  0  0  0  0  0  0  0  0  0
    3.4577   -0.0000    0.0000 C   0  0  0  0  0  0  0  0  0  0  0  0
    4.6103   -1.9939    0.0000 C   0  0  0  0  0  0  0  0  0  0  0  0
    2.3051   -1.9939    0.0000 C   0  0  0  0  0  0  0  0  0  0  0  0
    5.7628   -1.3312    0.0000 C   0  0  0  0  0  0  0  0  0  0  0  0
    1.1526   -1.3312    0.0000 C   0  0  0  0  0  0  0  0  0  0  0  0
    5.7628   -0.0000    0.0000 O   0  0  0  0  0  0  0  0  0  0  0  0
    0.0000   -1.9939    0.0000 O   0  0  0  0  0  0  0  0  0  0  0  0
  1  2  1  0  0  0  0 
  1  3  1  0  0  0  0 
  1  4  1  0  0  0  0 
  3  5  1  0  0  0  0 
  4  6  1  0  0  0  0 
  5  7  1  0  0  0  0 
  6  8  1  0  0  0  0 
M  END
> <Name>
Ethanol, 2,2'-(methylimino)bis-

> <Source>
DSSTox2DMolFile

> <Tox>
1.166

> <CAS>
105-59-9

$$$$

  CDK

  9  8  0  0  0  0  0  0  0  0999 V2000
   -0.5145    0.3443    0.0647 C   0  0  0  0  0  0  0  0  0  0  0  0
   -1.7411   -0.5358    0.1343 C   0  0  0  0  0  0  0  0  0  0  0  0
   -0.4461    1.5572    0.0400 O   0  0  0  0  0  0  0  0  0  0  0  0
    0.6392   -0.3870    0.0388 O   0  0  0  0  0  0  0  0  0  0  0  0
   -3.0247    0.2305   -0.1414 C   0  0  0  0  0  0  0  0  0  0  0  0
    1.8859    0.3077   -0.0051 C   0  0  0  0  0  0  0  0  0  0  0  0
   -4.2288   -0.6793   -0.0449 C   0  0  0  0  0  0  0  0  0  0  0  0
    2.9751   -0.7618   -0.0185 C   0  0  0  0  0  0  0  0  0  0  0  0
    4.3416   -0.1167   -0.0648 C   0  0  0  0  0  0  0  0  0  0  0  0
  1  2  1  0  0  0  0 
  1  3  2  0  0  0  0 
  1  4  1  0  0  0  0 
  2  5  1  0  0  0  0 
  4  6  1  0  0  0  0 
  5  7  1  0  0  0  0 
  6  8  1  0  0  0  0 
  8  9  1  0  0  0  0 
M  END
> <Name>
Butanoic acid, propyl ester

> <Source>
DougDB3DMolFile

> <Tox>
2.586

> <CAS>
105-66-8

$$$$

  CDK

  9  9  0  0  0  0  0  0  0  0999 V2000
    4.6082   -0.0000    0.0000 O   0  0  0  0  0  0  0  0  0  0  0  0
    3.4561   -0.6636    0.0000 C   0  0  0  0  0  0  0  0  0  0  0  0
    3.4561   -1.9953    0.0000 C   0  0  0  0  0  0  0  0  0  0  0  0
    2.3041   -0.0000    0.0000 C   0  0  0  0  0  0  0  0  0  0  0  0
    4.6082   -2.6589    0.0000 C   0  0  0  0  0  0  0  0  0  0  0  0
    2.3041   -2.6589    0.0000 C   0  0  0  0  0  0  0  0  0  0  0  0
    1.1520   -0.6636    0.0000 C   0  0  0  0  0  0  0  0  0  0  0  0
    1.1520   -1.9953    0.0000 C   0  0  0  0  0  0  0  0  0  0  0  0
    0.0000   -2.6589    0.0000 C   0  0  0  0  0  0  0  0  0  0  0  0
  1  2  1  0  0  0  0 
  2  3  2  0  0  0  0 
  2  4  1  0  0  0  0 
  3  5  1  0  0  0  0 
  3  6  1  0  0  0  0 
  7  4  2  0  0  0  0 
  6  8  2  0  0  0  0 
  8  7  1  0  0  0  0 
  8  9  1  0  0  0  0 
M  END
> <Name>
Phenol, 2,4-dimethyl-

> <Source>
DSSTox2DMolFile

> <Tox>
3.140

> <CAS>
105-67-9

$$$$

  CDK

 16 15  0  0  0  0  0  0  0  0999 V2000
   12.6865   -3.3366    0.0000 C   0  0  0  0  0  0  0  0  0  0  0  0
   11.5320   -3.9963    0.0000 C   0  0  0  0  0  0  0  0  0  0  0  0
   10.3776   -3.3366    0.0000 C   0  0  0  0  0  0  0  0  0  0  0  0
    9.2231   -3.9963    0.0000 C   0  0  0  0  0  0  0  0  0  0  0  0
    8.0686   -3.3366    0.0000 O   0  0  0  0  0  0  0  0  0  0  0  0
    6.9142   -3.9963    0.0000 C   0  0  0  0  0  0  0  0  0  0  0  0
    6.9142   -5.3283    0.0000 O   0  0  0  0  0  0  0  0  0  0  0  0
    5.7724   -3.3366    0.0000 C   0  0  0  0  0  0  0  0  0  0  0  0
    4.6179   -3.9963    0.0000 C   0  0  0  0  0  0  0  0  0  0  0  0
    3.4634   -3.3366    0.0000 C   0  0  0  0  0  0  0  0  0  0  0  0
    3.4634   -2.0045    0.0000 O   0  0  0  0  0  0  0  0  0  0  0  0
    2.3089   -3.9963    0.0000 O   0  0  0  0  0  0  0  0  0  0  0  0
    1.1545   -3.3366    0.0000 C   0  0  0  0  0  0  0  0  0  0  0  0
    1.1545   -2.0045    0.0000 C   0  0  0  0  0  0  0  0  0  0  0  0
    0.0000   -1.3321    0.0000 C   0  0  0  0  0  0  0  0  0  0  0  0
    0.0000   -0.0000    0.0000 C   0  0  0  0  0  0  0  0  0  0  0  0
  1  2  1  0  0  0  0 
  2  3  1  0  0  0  0 
  3  4  1  0  0  0  0 
  4  5  1  0  0  0  0 
  5  6  1  0  0  0  0 
  6  7  2  0  0  0  0 
  6  8  1  0  0  0  0 
  8  9  2  0  0  0  0 
  9 10  1  0  0  0  0 
 10 11  2  0  0  0  0 
 10 12  1  0  0  0  0 
 12 13  1  0  0  0  0 
 13 14  1  0  0  0  0 
 14 15  1  0  0  0  0 
 15 16  1  0  0  0  0 
M  END
> <Name>
2-Butenedioic acid (E)-, dibutyl ester (9CI)

> <Source>
DSSTox2DMolFile

> <Tox>
4.490

> <CAS>
105-75-9

$$$$

  CDK

 18 17  0  0  0  0  0  0  0  0999 V2000
    0.0000   -1.9924    0.0000 C   0  0  0  0  0  0  0  0  0  0  0  0
    1.1608   -1.3340    0.0000 C   0  0  0  0  0  0  0  0  0  0  0  0
    2.3042   -1.9924    0.0000 C   0  0  0  0  0  0  0  0  0  0  0  0
    3.4650   -1.3340    0.0000 C   0  0  0  0  0  0  0  0  0  0  0  0
    4.6258   -1.9924    0.0000 O   0  0  0  0  0  0  0  0  0  0  0  0
    5.7692   -1.3340    0.0000 C   0  0  0  0  0  0  0  0  0  0  0  0
    5.7692   -0.0000    0.0000 O   0  0  0  0  0  0  0  0  0  0  0  0
    6.9300   -1.9924    0.0000 C   0  0  0  0  0  0  0  0  0  0  0  0
    8.0908   -1.3340    0.0000 C   0  0  0  0  0  0  0  0  0  0  0  0
    9.2342   -1.9924    0.0000 C   0  0  0  0  0  0  0  0  0  0  0  0
   10.3950   -1.3340    0.0000 C   0  0  0  0  0  0  0  0  0  0  0  0
   11.5558   -1.9924    0.0000 C   0  0  0  0  0  0  0  0  0  0  0  0
   11.5558   -3.3264    0.0000 O   0  0  0  0  0  0  0  0  0  0  0  0
   12.6992   -1.3340    0.0000 O   0  0  0  0  0  0  0  0  0  0  0  0
   13.8600   -1.9924    0.0000 C   0  0  0  0  0  0  0  0  0  0  0  0
   15.0208   -1.3340    0.0000 C   0  0  0  0  0  0  0  0  0  0  0  0
   16.1643   -1.9924    0.0000 C   0  0  0  0  0  0  0  0  0  0  0  0
   17.3250   -1.3340    0.0000 C   0  0  0  0  0  0  0  0  0  0  0  0
  1  2  1  0  0  0  0 
  2  3  1  0  0  0  0 
  3  4  1  0  0  0  0 
  4  5  1  0  0  0  0 
  5  6  1  0  0  0  0 
  6  7  2  0  0  0  0 
  6  8  1  0  0  0  0 
  8  9  1  0  0  0  0 
  9 10  1  0  0  0  0 
 10 11  1  0  0  0  0 
 11 12  1  0  0  0  0 
 12 13  2  0  0  0  0 
 12 14  1  0  0  0  0 
 14 15  1  0  0  0  0 
 15 16  1  0  0  0  0 
 16 17  1  0  0  0  0 
 17 18  1  0  0  0  0 
M  END
> <Name>
Hexanedioic acid, dibutyl ester

> <Source>
DSSTox2DMolFile

> <Tox>
3.792

> <CAS>
105-99-7

$$$$

  CDK

  8  7  0  0  0  0  0  0  0  0999 V2000
    1.1003    0.4156   -0.1991 C   0  0  0  0  0  0  0  0  0  0  0  0
    2.3227   -0.3908   -0.5819 C   0  0  0  0  0  0  0  0  0  0  0  0
    1.0612    1.5781    0.1532 O   0  0  0  0  0  0  0  0  0  0  0  0
   -0.0572   -0.2998   -0.2813 O   0  0  0  0  0  0  0  0  0  0  0  0
    3.0409   -0.8888    0.6532 C   0  0  0  0  0  0  0  0  0  0  0  0
   -1.2836    0.3447    0.0672 C   0  0  0  0  0  0  0  0  0  0  0  0
   -2.3852   -0.6960   -0.1152 C   0  0  0  0  0  0  0  0  0  0  0  0
   -3.7308   -0.1000    0.2315 C   0  0  0  0  0  0  0  0  0  0  0  0
  1  2  1  0  0  0  0 
  1  3  2  0  0  0  0 
  1  4  1  0  0  0  0 
  2  5  1  0  0  0  0 
  4  6  1  0  0  0  0 
  6  7  1  0  0  0  0 
  7  8  1  0  0  0  0 
M  END
> <Name>
Propanoic acid, propyl ester

> <Source>
DougDB3DMolFile

> <Tox>
2.185

> <CAS>
106-36-5

$$$$

  CDK

  8  8  0  0  0  0  0  0  0  0999 V2000
    1.1558   -5.3261    0.0000 Br  0  0  0  0  0  0  0  0  0  0  0  0
    1.1558   -3.9945    0.0000 C   0  0  0  0  0  0  0  0  0  0  0  0
    2.3115   -3.3181    0.0000 C   0  0  0  0  0  0  0  0  0  0  0  0
    0.0000   -3.3181    0.0000 C   0  0  0  0  0  0  0  0  0  0  0  0
    2.3115   -2.0079    0.0000 C   0  0  0  0  0  0  0  0  0  0  0  0
    0.0000   -2.0079    0.0000 C   0  0  0  0  0  0  0  0  0  0  0  0
    1.1558   -1.3315    0.0000 C   0  0  0  0  0  0  0  0  0  0  0  0
    1.1558   -0.0000    0.0000 Br  0  0  0  0  0  0  0  0  0  0  0  0
  1  2  1  0  0  0  0 
  3  2  2  0  0  0  0 
  2  4  1  0  0  0  0 
  5  3  1  0  0  0  0 
  6  4  2  0  0  0  0 
  5  7  2  0  0  0  0 
  7  6  1  0  0  0  0 
  7  8  1  0  0  0  0 
M  END
> <Name>
Benzene, 1,4-dibromo-

> <Source>
DSSTox2DMolFile

> <Tox>
3.680

> <CAS>
106-37-6

$$$$

  CDK

  8  8  0  0  0  0  0  0  0  0999 V2000
    1.3300   -1.1545    0.0000 C   0  0  0  0  0  0  0  0  0  0  0  0
    1.9950   -0.0000    0.0000 C   0  0  0  0  0  0  0  0  0  0  0  0
    1.9950   -2.3036    0.0000 C   0  0  0  0  0  0  0  0  0  0  0  0
    0.0000   -1.1545    0.0000 C   0  0  0  0  0  0  0  0  0  0  0  0
    3.3250   -0.0000    0.0000 C   0  0  0  0  0  0  0  0  0  0  0  0
    3.3250   -2.3036    0.0000 C   0  0  0  0  0  0  0  0  0  0  0  0
    3.9900   -1.1545    0.0000 C   0  0  0  0  0  0  0  0  0  0  0  0
    5.3201   -1.1545    0.0000 Br  0  0  0  0  0  0  0  0  0  0  0  0
  1  2  2  0  0  0  0 
  1  3  1  0  0  0  0 
  1  4  1  0  0  0  0 
  2  5  1  0  0  0  0 
  6  3  2  0  0  0  0 
  5  7  2  0  0  0  0 
  7  6  1  0  0  0  0 
  7  8  1  0  0  0  0 
M  END
> <Name>
Benzene, 1-bromo-4-methyl-

> <Source>
DSSTox2DMolFile

> <Tox>
3.470

> <CAS>
106-38-7

$$$$

  CDK

  8  8  0  0  0  0  0  0  0  0999 V2000
    0.0000   -1.1545    0.0000 N   0  0  0  0  0  0  0  0  0  0  0  0
    1.3300   -1.1545    0.0000 C   0  0  0  0  0  0  0  0  0  0  0  0
    1.9950   -0.0000    0.0000 C   0  0  0  0  0  0  0  0  0  0  0  0
    1.9950   -2.3036    0.0000 C   0  0  0  0  0  0  0  0  0  0  0  0
    3.3250   -0.0000    0.0000 C   0  0  0  0  0  0  0  0  0  0  0  0
    3.3250   -2.3036    0.0000 C   0  0  0  0  0  0  0  0  0  0  0  0
    3.9900   -1.1545    0.0000 C   0  0  0  0  0  0  0  0  0  0  0  0
    5.3201   -1.1545    0.0000 Br  0  0  0  0  0  0  0  0  0  0  0  0
  1  2  1  0  0  0  0 
  2  3  2  0  0  0  0 
  2  4  1  0  0  0  0 
  3  5  1  0  0  0  0 
  6  4  2  0  0  0  0 
  5  7  2  0  0  0  0 
  7  6  1  0  0  0  0 
  7  8  1  0  0  0  0 
M  END
> <Name>
Benzenamine, 4-bromo-

> <Source>
DSSTox2DMolFile

> <Tox>
4.010

> <CAS>
106-40-1

$$$$

  CDK

  8  8  0  0  0  0  0  0  0  0999 V2000
    3.9843    0.8467    0.0000 Br  0  0  0  0  0  0  0  0  0  0  0  0
    2.9883    0.8467    0.0000 C   0  0  0  0  0  0  0  0  0  0  0  0
    2.4902    0.0000    0.0000 C   0  0  0  0  0  0  0  0  0  0  0  0
    2.4902    1.7432    0.0000 C   0  0  0  0  0  0  0  0  0  0  0  0
    1.4941    0.0000    0.0000 C   0  0  0  0  0  0  0  0  0  0  0  0
    1.4941    1.7432    0.0000 C   0  0  0  0  0  0  0  0  0  0  0  0
    0.9961    0.8467    0.0000 C   0  0  0  0  0  0  0  0  0  0  0  0
    0.0000    0.8467    0.0000 O   0  0  0  0  0  0  0  0  0  0  0  0
  1  2  1  0  0  0  0 
  3  2  2  0  0  0  0 
  2  4  1  0  0  0  0 
  5  3  1  0  0  0  0 
  4  6  2  0  0  0  0 
  7  5  2  0  0  0  0 
  6  7  1  0  0  0  0 
  8  7  1  0  0  0  0 
M  END
> <Name>
Phenol, 4-bromo-

> <Source>
NIST2DMolFile

> <Tox>
3.680

> <CAS>
106-41-2

$$$$

  CDK

  8  8  0  0  0  0  0  0  0  0999 V2000
    0.0000   -1.1545    0.0000 C   0  0  0  0  0  0  0  0  0  0  0  0
    1.3300   -1.1545    0.0000 C   0  0  0  0  0  0  0  0  0  0  0  0
    1.9950   -0.0000    0.0000 C   0  0  0  0  0  0  0  0  0  0  0  0
    1.9950   -2.3036    0.0000 C   0  0  0  0  0  0  0  0  0  0  0  0
    3.3250   -0.0000    0.0000 C   0  0  0  0  0  0  0  0  0  0  0  0
    3.3250   -2.3036    0.0000 C   0  0  0  0  0  0  0  0  0  0  0  0
    3.9900   -1.1545    0.0000 C   0  0  0  0  0  0  0  0  0  0  0  0
    5.3201   -1.1545    0.0000 C   0  0  0  0  0  0  0  0  0  0  0  0
  1  2  1  0  0  0  0 
  2  3  2  0  0  0  0 
  2  4  1  0  0  0  0 
  3  5  1  0  0  0  0 
  6  4  2  0  0  0  0 
  5  7  2  0  0  0  0 
  7  6  1  0  0  0  0 
  7  8  1  0  0  0  0 
M  END
> <Name>
Benzene, 1,4-dimethyl-

> <Source>
DSSTox2DMolFile

> <Tox>
3.250

> <CAS>
106-42-3

$$$$

  CDK

  8  8  0  0  0  0  0  0  0  0999 V2000
    0.0000   -1.1545    0.0000 O   0  0  0  0  0  0  0  0  0  0  0  0
    1.3300   -1.1545    0.0000 C   0  0  0  0  0  0  0  0  0  0  0  0
    1.9950   -0.0000    0.0000 C   0  0  0  0  0  0  0  0  0  0  0  0
    1.9950   -2.3036    0.0000 C   0  0  0  0  0  0  0  0  0  0  0  0
    3.3250   -0.0000    0.0000 C   0  0  0  0  0  0  0  0  0  0  0  0
    3.3250   -2.3036    0.0000 C   0  0  0  0  0  0  0  0  0  0  0  0
    3.9900   -1.1545    0.0000 C   0  0  0  0  0  0  0  0  0  0  0  0
    5.3201   -1.1545    0.0000 C   0  0  0  0  0  0  0  0  0  0  0  0
  1  2  1  0  0  0  0 
  2  3  2  0  0  0  0 
  2  4  1  0  0  0  0 
  3  5  1  0  0  0  0 
  6  4  2  0  0  0  0 
  5  7  2  0  0  0  0 
  7  6  1  0  0  0  0 
  7  8  1  0  0  0  0 
M  END
> <Name>
Phenol, 4-methyl-

> <Source>
DSSTox2DMolFile

> <Tox>
2.840

> <CAS>
106-44-5

$$$$

  CDK

  8  8  0  0  0  0  0  0  0  0999 V2000
    0.0000   -1.1545    0.0000 Cl  0  0  0  0  0  0  0  0  0  0  0  0
    1.3300   -1.1545    0.0000 C   0  0  0  0  0  0  0  0  0  0  0  0
    1.9950   -0.0000    0.0000 C   0  0  0  0  0  0  0  0  0  0  0  0
    1.9950   -2.3036    0.0000 C   0  0  0  0  0  0  0  0  0  0  0  0
    3.3250   -0.0000    0.0000 C   0  0  0  0  0  0  0  0  0  0  0  0
    3.3250   -2.3036    0.0000 C   0  0  0  0  0  0  0  0  0  0  0  0
    3.9900   -1.1545    0.0000 C   0  0  0  0  0  0  0  0  0  0  0  0
    5.3201   -1.1545    0.0000 Cl  0  0  0  0  0  0  0  0  0  0  0  0
  1  2  1  0  0  0  0 
  2  3  2  0  0  0  0 
  2  4  1  0  0  0  0 
  3  5  1  0  0  0  0 
  6  4  2  0  0  0  0 
  5  7  2  0  0  0  0 
  7  6  1  0  0  0  0 
  7  8  1  0  0  0  0 
M  END
> <Name>
Benzene, 1,4-dichloro-

> <Source>
DSSTox2DMolFile

> <Tox>
3.530

> <CAS>
106-46-7

$$$$

  CDK

  8  8  0  0  0  0  0  0  0  0999 V2000
    0.0000   -1.1545    0.0000 N   0  0  0  0  0  0  0  0  0  0  0  0
    1.3300   -1.1545    0.0000 C   0  0  0  0  0  0  0  0  0  0  0  0
    1.9950   -0.0000    0.0000 C   0  0  0  0  0  0  0  0  0  0  0  0
    1.9950   -2.3036    0.0000 C   0  0  0  0  0  0  0  0  0  0  0  0
    3.3250   -0.0000    0.0000 C   0  0  0  0  0  0  0  0  0  0  0  0
    3.3250   -2.3036    0.0000 C   0  0  0  0  0  0  0  0  0  0  0  0
    3.9900   -1.1545    0.0000 C   0  0  0  0  0  0  0  0  0  0  0  0
    5.3201   -1.1545    0.0000 C   0  0  0  0  0  0  0  0  0  0  0  0
  1  2  1  0  0  0  0 
  2  3  2  0  0  0  0 
  2  4  1  0  0  0  0 
  3  5  1  0  0  0  0 
  6  4  2  0  0  0  0 
  5  7  2  0  0  0  0 
  7  6  1  0  0  0  0 
  7  8  1  0  0  0  0 
M  END
> <Name>
Benzenamine, 4-methyl-

> <Source>
DSSTox2DMolFile

> <Tox>
2.950

> <CAS>
106-49-0

$$$$

  CDK

  9  8  0  0  0  0  0  0  0  0999 V2000
    6.9045   -1.9954    0.0000 C   0  0  0  0  0  0  0  0  0  0  0  0
    5.7514   -1.3257    0.0000 C   0  0  0  0  0  0  0  0  0  0  0  0
    4.6053   -1.9954    0.0000 C   0  0  0  0  0  0  0  0  0  0  0  0
    4.6053   -3.3210    0.0000 O   0  0  0  0  0  0  0  0  0  0  0  0
    3.4522   -1.3257    0.0000 O   0  0  0  0  0  0  0  0  0  0  0  0
    2.2992   -1.9954    0.0000 C   0  0  0  0  0  0  0  0  0  0  0  0
    1.1530   -1.3257    0.0000 C   0  0  0  0  0  0  0  0  0  0  0  0
    0.0000   -1.9954    0.0000 C   0  0  0  0  0  0  0  0  0  0  0  0
    1.1530   -0.0000    0.0000 C   0  0  0  0  0  0  0  0  0  0  0  0
  1  2  2  0  0  0  0 
  2  3  1  0  0  0  0 
  3  4  2  0  0  0  0 
  3  5  1  0  0  0  0 
  5  6  1  0  0  0  0 
  6  7  1  0  0  0  0 
  7  8  1  0  0  0  0 
  7  9  1  0  0  0  0 
M  END
> <Name>
2-Propenoic acid, 2-methylpropyl ester

> <Source>
DSSTox2DMolFile

> <Tox>
3.290

> <CAS>
106-63-8

$$$$

  CDK

 10  9  0  0  0  0  0  0  0  0999 V2000
    1.1523   -1.3309    0.0000 C   0  0  0  0  0  0  0  0  0  0  0  0
    1.1523   -0.0000    0.0000 O   0  0  0  0  0  0  0  0  0  0  0  0
    0.0000   -1.9935    0.0000 O   0  0  0  0  0  0  0  0  0  0  0  0
    2.3047   -1.9935    0.0000 C   0  0  0  0  0  0  0  0  0  0  0  0
    0.0000   -3.3245    0.0000 C   0  0  0  0  0  0  0  0  0  0  0  0
    3.4570   -1.3309    0.0000 C   0  0  0  0  0  0  0  0  0  0  0  0
    4.6093   -1.9935    0.0000 C   0  0  0  0  0  0  0  0  0  0  0  0
    4.6093   -3.3245    0.0000 O   0  0  0  0  0  0  0  0  0  0  0  0
    5.7617   -1.3309    0.0000 O   0  0  0  0  0  0  0  0  0  0  0  0
    5.7617   -0.0000    0.0000 C   0  0  0  0  0  0  0  0  0  0  0  0
  1  2  2  0  0  0  0 
  1  3  1  0  0  0  0 
  1  4  1  0  0  0  0 
  3  5  1  0  0  0  0 
  4  6  1  0  0  0  0 
  6  7  1  0  0  0  0 
  7  8  2  0  0  0  0 
  7  9  1  0  0  0  0 
  9 10  1  0  0  0  0 
M  END
> <Name>
Butanedioic acid, dimethyl ester

> <Source>
DSSTox2DMolFile

> <Tox>
1.943

> <CAS>
106-65-0

$$$$

  CDK

  9  8  0  0  0  0  0  0  0  0999 V2000
    4.1592    1.6800    1.2871 C   0  0  0  0  0  0  0  0  0  0  0  0
    2.9940    1.4674    2.2236 C   0  0  0  0  0  0  0  0  0  0  0  0
    5.4019    2.1800    2.0045 C   0  0  0  0  0  0  0  0  0  0  0  0
    1.8749    1.0265    1.5660 O   0  0  0  0  0  0  0  0  0  0  0  0
    2.9373    1.6329    3.4254 O   0  0  0  0  0  0  0  0  0  0  0  0
    6.5400    2.4024    1.0208 C   0  0  0  0  0  0  0  0  0  0  0  0
    0.7014    0.7848    2.3110 C   0  0  0  0  0  0  0  0  0  0  0  0
    7.7902    2.8990    1.7291 C   0  0  0  0  0  0  0  0  0  0  0  0
    8.9212    3.1349    0.7538 C   0  0  0  0  0  0  0  0  0  0  0  0
  1  2  1  0  0  0  0 
  1  3  1  0  0  0  0 
  2  4  1  0  0  0  0 
  2  5  2  0  0  0  0 
  3  6  1  0  0  0  0 
  4  7  1  0  0  0  0 
  6  8  1  0  0  0  0 
  8  9  1  0  0  0  0 
M  END
> <Name>
Hexanoic acid, methyl ester

> <Source>
NIST3DMolFile

> <Tox>
2.439

> <CAS>
106-70-7

$$$$

  CDK

 10  9  0  0  0  0  0  0  0  0999 V2000
    4.3356    1.0933    1.6694 C   0  0  0  0  0  0  0  0  0  0  0  0
    3.0716    1.6644    1.0730 C   0  0  0  0  0  0  0  0  0  0  0  0
    5.5919    1.7353    1.1052 C   0  0  0  0  0  0  0  0  0  0  0  0
    1.9459    1.1973    1.7007 O   0  0  0  0  0  0  0  0  0  0  0  0
    2.9442    2.4415    0.1482 O   0  0  0  0  0  0  0  0  0  0  0  0
    6.8373    1.0868    1.6899 C   0  0  0  0  0  0  0  0  0  0  0  0
    0.6842    1.6355    1.2460 C   0  0  0  0  0  0  0  0  0  0  0  0
    8.0996    1.7605    1.1771 C   0  0  0  0  0  0  0  0  0  0  0  0
    9.3478    1.0822    1.7192 C   0  0  0  0  0  0  0  0  0  0  0  0
   10.6045    1.7861    1.2590 C   0  0  0  0  0  0  0  0  0  0  0  0
  1  2  1  0  0  0  0 
  1  3  1  0  0  0  0 
  2  4  1  0  0  0  0 
  2  5  2  0  0  0  0 
  3  6  1  0  0  0  0 
  4  7  1  0  0  0  0 
  6  8  1  0  0  0  0 
  8  9  1  0  0  0  0 
  9 10  1  0  0  0  0 
M  END
> <Name>
Heptanoic acid, methyl ester

> <Source>
NIST3DMolFile

> <Tox>
3.104

> <CAS>
106-73-0

$$$$

  CDK

 16 15  0  0  0  0  0  0  0  0999 V2000
    2.2747   -1.2934    0.0000 C   0  0  0  0  0  0  0  0  0  0  0  0
    3.4640   -1.9922    0.0000 C   0  0  0  0  0  0  0  0  0  0  0  0
    1.1448   -1.9922    0.0000 O   0  0  0  0  0  0  0  0  0  0  0  0
    2.2747   -0.0000    0.0000 O   0  0  0  0  0  0  0  0  0  0  0  0
    4.5493   -1.2934    0.0000 C   0  0  0  0  0  0  0  0  0  0  0  0
    0.0000   -1.2934    0.0000 C   0  0  0  0  0  0  0  0  0  0  0  0
    5.7387   -1.9922    0.0000 C   0  0  0  0  0  0  0  0  0  0  0  0
    6.8835   -1.2934    0.0000 C   0  0  0  0  0  0  0  0  0  0  0  0
    8.0282   -1.9922    0.0000 C   0  0  0  0  0  0  0  0  0  0  0  0
    9.1730   -1.2934    0.0000 C   0  0  0  0  0  0  0  0  0  0  0  0
   10.3178   -1.9922    0.0000 C   0  0  0  0  0  0  0  0  0  0  0  0
   11.4625   -1.2934    0.0000 C   0  0  0  0  0  0  0  0  0  0  0  0
   12.5924   -1.9922    0.0000 C   0  0  0  0  0  0  0  0  0  0  0  0
   13.7223   -1.3529    0.0000 O   0  0  0  0  0  0  0  0  0  0  0  0
   12.5924   -3.2856    0.0000 O   0  0  0  0  0  0  0  0  0  0  0  0
   14.8671   -1.9922    0.0000 C   0  0  0  0  0  0  0  0  0  0  0  0
  1  2  1  0  0  0  0 
  1  3  1  0  0  0  0 
  1  4  2  0  0  0  0 
  2  5  1  0  0  0  0 
  3  6  1  0  0  0  0 
  5  7  1  0  0  0  0 
  7  8  1  0  0  0  0 
  8  9  1  0  0  0  0 
  9 10  1  0  0  0  0 
 10 11  1  0  0  0  0 
 11 12  1  0  0  0  0 
 12 13  1  0  0  0  0 
 13 14  1  0  0  0  0 
 13 15  2  0  0  0  0 
 14 16  1  0  0  0  0 
M  END
> <Name>
Sebacic acid, dimethyl ester (8CI)

> <Source>
DSSTox2DMolFile

> <Tox>
4.011

> <CAS>
106-79-6

$$$$

  CDK

  4  3  0  0  0  0  0  0  0  0999 V2000
    0.0000   -0.0000    0.0000 Br  0  0  0  0  0  0  0  0  0  0  0  0
    1.1513   -0.6638    0.0000 C   0  0  0  0  0  0  0  0  0  0  0  0
    2.3061   -0.0000    0.0000 C   0  0  0  0  0  0  0  0  0  0  0  0
    3.4575   -0.6638    0.0000 C   0  0  0  0  0  0  0  0  0  0  0  0
  1  2  1  0  0  0  0 
  2  3  1  0  0  0  0 
  3  4  2  0  0  0  0 
M  END
> <Name>
1-Propene, 3-bromo-

> <Source>
DSSTox2DMolFile

> <Tox>
3.569

> <CAS>
106-95-6

$$$$

  CDK

  4  3  0  0  0  0  0  0  0  0999 V2000
    0.0000   -0.0000    0.0000 C   0  0  0  0  0  0  0  0  0  0  0  0
    1.1513   -0.6638    0.0000 C   0  0  0  0  0  0  0  0  0  0  0  0
    2.3061   -0.0000    0.0000 C   0  0  0  0  0  0  0  0  0  0  0  0
    3.4575   -0.6638    0.0000 O   0  0  0  0  0  0  0  0  0  0  0  0
  1  2  2  0  0  0  0 
  2  3  1  0  0  0  0 
  3  4  2  0  0  0  0 
M  END
> <Name>
Acrylaldehyde

> <Source>
DSSTox2DMolFile

> <Tox>
4.890

> <CAS>
107-02-8

$$$$

  CDK

  4  3  0  0  0  0  0  0  0  0999 V2000
    0.0000   -0.0000    0.0000 C   0  0  0  0  0  0  0  0  0  0  0  0
    1.1513   -0.6638    0.0000 C   0  0  0  0  0  0  0  0  0  0  0  0
    2.3061   -0.0000    0.0000 C   0  0  0  0  0  0  0  0  0  0  0  0
    3.4575   -0.6638    0.0000 Cl  0  0  0  0  0  0  0  0  0  0  0  0
  1  2  2  0  0  0  0 
  2  3  1  0  0  0  0 
  3  4  1  0  0  0  0 
M  END
> <Name>
1-Propene, 3-chloro-

> <Source>
DSSTox2DMolFile

> <Tox>
2.060

> <CAS>
107-05-1

$$$$

  CDK

  4  3  0  0  0  0  0  0  0  0999 V2000
    0.0000   -0.0000    0.0000 Cl  0  0  0  0  0  0  0  0  0  0  0  0
    1.1513   -0.6638    0.0000 C   0  0  0  0  0  0  0  0  0  0  0  0
    2.3061   -0.0000    0.0000 C   0  0  0  0  0  0  0  0  0  0  0  0
    3.4575   -0.6638    0.0000 O   0  0  0  0  0  0  0  0  0  0  0  0
  1  2  1  0  0  0  0 
  2  3  1  0  0  0  0 
  3  4  1  0  0  0  0 
M  END
> <Name>
Ethanol, 2-chloro-

> <Source>
DSSTox2DMolFile

> <Tox>
1.583

> <CAS>
107-07-3

$$$$

  CDK

  4  3  0  0  0  0  0  0  0  0999 V2000
    0.0000    0.0000    0.0000 C   0  0  0  0  0  0  0  0  0  0  0  0
    0.9356    0.4678    0.0000 C   0  0  0  0  0  0  0  0  0  0  0  0
    1.8192    0.0000    0.0000 C   0  0  0  0  0  0  0  0  0  0  0  0
    2.6508    0.4678    0.0000 I   0  0  0  0  0  0  0  0  0  0  0  0
  1  2  1  0  0  0  0 
  2  3  1  0  0  0  0 
  3  4  1  0  0  0  0 
M  END
> <Name>
Propane, 1-iodo-

> <Source>
NIST2DMolFile

> <Tox>
2.610

> <CAS>
107-08-4

$$$$

  CDK

  4  3  0  0  0  0  0  0  0  0999 V2000
    0.0000   -0.0000    0.0000 C   0  0  0  0  0  0  0  0  0  0  0  0
    0.6652   -1.1508    0.0000 C   0  0  0  0  0  0  0  0  0  0  0  0
    1.9956   -1.1508    0.0000 C   0  0  0  0  0  0  0  0  0  0  0  0
    3.3260   -1.1508    0.0000 N   0  0  0  0  0  0  0  0  0  0  0  0
  1  2  1  0  0  0  0 
  2  3  1  0  0  0  0 
  3  4  3  0  0  0  0 
M  END
> <Name>
Propiononitrile

> <Source>
DSSTox2DMolFile

> <Tox>
1.028

> <CAS>
107-12-0

$$$$

  CDK

  4  3  0  0  0  0  0  0  0  0999 V2000
    0.0000   -1.1508    0.0000 N   0  0  0  0  0  0  0  0  0  0  0  0
    1.3304   -1.1508    0.0000 C   0  0  0  0  0  0  0  0  0  0  0  0
    2.6608   -1.1508    0.0000 C   0  0  0  0  0  0  0  0  0  0  0  0
    3.3260   -0.0000    0.0000 Cl  0  0  0  0  0  0  0  0  0  0  0  0
  1  2  3  0  0  0  0 
  2  3  1  0  0  0  0 
  3  4  1  0  0  0  0 
M  END
> <Name>
Acetonitrile, chloro-

> <Source>
DSSTox2DMolFile

> <Tox>
3.845

> <CAS>
107-14-2

$$$$

  CDK

  4  3  0  0  0  0  0  0  0  0999 V2000
    0.0000   -0.0000    0.0000 C   0  0  0  0  0  0  0  0  0  0  0  0
    1.1513   -0.6638    0.0000 C   0  0  0  0  0  0  0  0  0  0  0  0
    2.3061   -0.0000    0.0000 C   0  0  0  0  0  0  0  0  0  0  0  0
    3.4575   -0.6638    0.0000 O   0  0  0  0  0  0  0  0  0  0  0  0
  1  2  2  0  0  0  0 
  2  3  1  0  0  0  0 
  3  4  1  0  0  0  0 
M  END
> <Name>
2-Propen-1-ol

> <Source>
DSSTox2DMolFile

> <Tox>
1.082

> <CAS>
107-18-6

$$$$

  CDK

  4  3  0  0  0  0  0  0  0  0999 V2000
    0.6652   -1.1508    0.0000 C   0  0  0  0  0  0  0  0  0  0  0  0
    0.0000   -0.0000    0.0000 O   0  0  0  0  0  0  0  0  0  0  0  0
    1.9956   -1.1508    0.0000 C   0  0  0  0  0  0  0  0  0  0  0  0
    3.3260   -1.1508    0.0000 C   0  0  0  0  0  0  0  0  0  0  0  0
  1  2  1  0  0  0  0 
  1  3  1  0  0  0  0 
  3  4  3  0  0  0  0 
M  END
> <Name>
Propargyl alcohol

> <Source>
DSSTox2DMolFile

> <Tox>
1.926

> <CAS>
107-19-7

$$$$

  CDK

  4  3  0  0  0  0  0  0  0  0999 V2000
    0.0000   -0.0000    0.0000 C   0  0  0  0  0  0  0  0  0  0  0  0
    1.1513   -0.6638    0.0000 C   0  0  0  0  0  0  0  0  0  0  0  0
    2.3061   -0.0000    0.0000 N   0  0  0  0  0  0  0  0  0  0  0  0
    3.4575   -0.6638    0.0000 O   0  0  0  0  0  0  0  0  0  0  0  0
  1  2  1  0  0  0  0 
  2  3  2  0  0  0  0 
  3  4  1  0  0  0  0 
M  END
> <Name>
Acetaldehyde, oxime

> <Source>
DSSTox2DMolFile

> <Tox>
1.390

> <CAS>
107-29-9

$$$$

  CDK

  4  3  0  0  0  0  0  0  0  0999 V2000
    3.4575   -0.0000    0.0000 O   0  0  0  0  0  0  0  0  0  0  0  0
    2.3061   -0.6638    0.0000 C   0  0  0  0  0  0  0  0  0  0  0  0
    1.1513   -0.0000    0.0000 O   0  0  0  0  0  0  0  0  0  0  0  0
    0.0000   -0.6638    0.0000 C   0  0  0  0  0  0  0  0  0  0  0  0
  1  2  2  0  0  0  0 
  2  3  1  0  0  0  0 
  3  4  1  0  0  0  0 
M  END
> <Name>
Formic acid, methyl ester

> <Source>
DSSTox2DMolFile

> <Tox>
1.502

> <CAS>
107-31-3

$$$$

  CDK

  8  7  0  0  0  0  0  0  0  0999 V2000
    3.3874   -0.1694    0.0000 C   0  0  0  0  0  0  0  0  0  0  0  0
    3.2950   -1.2728    0.0000 C   0  0  0  0  0  0  0  0  0  0  0  0
    2.2069   -1.8990    0.0000 C   0  0  0  0  0  0  0  0  0  0  0  0
    5.1324   -0.9803    0.0000 C   0  0  0  0  0  0  0  0  0  0  0  0
    3.9366   -2.3763    0.0000 O   0  0  0  0  0  0  0  0  0  0  0  0
    1.1035   -1.2728    0.0000 C   0  0  0  0  0  0  0  0  0  0  0  0
    0.0000   -1.8990    0.0000 O   0  0  0  0  0  0  0  0  0  0  0  0
    1.1035   -0.0000    0.0000 C   0  0  0  0  0  0  0  0  0  0  0  0
  1  2  1  0  0  0  0 
  2  3  1  0  0  0  0 
  2  4  1  0  0  0  0 
  2  5  1  0  0  0  0 
  3  6  1  0  0  0  0 
  6  7  1  0  0  0  0 
  6  8  1  0  0  0  0 
M  END
> <Name>
2,4-Pentanediol, 2-methyl-

> <Source>
DSSTox2DMolFile

> <Tox>
1.047

> <CAS>
107-41-5

$$$$

  CDK

  9  8  0  0  0  0  0  0  0  0999 V2000
    1.7390    0.7161    0.0000 O   0  0  0  0  0  0  0  0  0  0  0  0
    0.9718    1.4321    0.0000 C   0  0  0  0  0  0  0  0  0  0  0  0
    2.6597    0.9718    0.0000 C   0  0  0  0  0  0  0  0  0  0  0  0
    0.0000    1.1764    0.0000 O   0  0  0  0  0  0  0  0  0  0  0  0
    1.2787    2.3528    0.0000 C   0  0  0  0  0  0  0  0  0  0  0  0
    3.6315    1.2275    0.0000 C   0  0  0  0  0  0  0  0  0  0  0  0
    2.9154    0.0000    0.0000 C   0  0  0  0  0  0  0  0  0  0  0  0
    2.4039    1.9947    0.0000 C   0  0  0  0  0  0  0  0  0  0  0  0
    2.1993    2.6085    0.0000 Cl  0  0  0  0  0  0  0  0  0  0  0  0
  1  2  1  0  0  0  0 
  1  3  1  0  0  0  0 
  2  4  2  0  0  0  0 
  2  5  1  0  0  0  0 
  3  6  1  0  0  0  0 
  3  7  1  0  0  0  0 
  3  8  1  0  0  0  0 
  5  9  1  0  0  0  0 
M  END
> <Name>
Acetic acid, chloro-, 1,1-dimethylethyl ester

> <Source>
NIST2DMolFile

> <Tox>
3.854

> <CAS>
107-59-5

$$$$

  CDK

  6  5  0  0  0  0  0  0  0  0999 V2000
    3.0514    0.0000    0.0000 Br  0  0  0  0  0  0  0  0  0  0  0  0
    2.0343    0.0000    0.0000 C   0  0  0  0  0  0  0  0  0  0  0  0
    1.5257    0.8646    0.0000 C   0  0  0  0  0  0  0  0  0  0  0  0
    0.5086    0.8646    0.0000 C   0  0  0  0  0  0  0  0  0  0  0  0
    0.0000    1.6783    0.0000 C   0  0  0  0  0  0  0  0  0  0  0  0
    0.0000    0.0000    0.0000 C   0  0  0  0  0  0  0  0  0  0  0  0
  1  2  1  0  0  0  0 
  2  3  1  0  0  0  0 
  3  4  1  0  0  0  0 
  4  5  1  0  0  0  0 
  4  6  1  0  0  0  0 
M  END
> <Name>
1-bromo-3-methylbutane

> <Source>
NIST2DMolFile

> <Tox>
3.250

> <CAS>
107-82-4

$$$$

  CDK

  6  5  0  0  0  0  0  0  0  0999 V2000
    1.7391    1.4906    0.0000 C   0  0  0  0  0  0  0  0  0  0  0  0
    0.8944    0.9938    0.0000 C   0  0  0  0  0  0  0  0  0  0  0  0
    2.5838    0.9938    0.0000 C   0  0  0  0  0  0  0  0  0  0  0  0
    0.8944    0.0000    0.0000 C   0  0  0  0  0  0  0  0  0  0  0  0
    0.0000    1.4906    0.0000 C   0  0  0  0  0  0  0  0  0  0  0  0
    3.4781    1.4906    0.0000 N   0  0  0  0  0  0  0  0  0  0  0  0
  1  2  1  0  0  0  0 
  1  3  1  0  0  0  0 
  2  4  1  0  0  0  0 
  2  5  1  0  0  0  0 
  3  6  1  0  0  0  0 
M  END
> <Name>
1-Butanamine, 3-methyl-

> <Source>
NIST2DMolFile

> <Tox>
2.423

> <CAS>
107-85-7

$$$$

  CDK

  6  5  0  0  0  0  0  0  0  0999 V2000
    1.1553   -1.3355    0.0000 C   0  0  0  0  0  0  0  0  0  0  0  0
    2.3105   -1.9917    0.0000 C   0  0  0  0  0  0  0  0  0  0  0  0
    0.0000   -1.9917    0.0000 O   0  0  0  0  0  0  0  0  0  0  0  0
    3.4658   -1.3355    0.0000 C   0  0  0  0  0  0  0  0  0  0  0  0
    4.6211   -1.9917    0.0000 C   0  0  0  0  0  0  0  0  0  0  0  0
    3.4658   -0.0000    0.0000 C   0  0  0  0  0  0  0  0  0  0  0  0
  1  2  1  0  0  0  0 
  1  3  2  0  0  0  0 
  2  4  2  0  0  0  0 
  4  5  1  0  0  0  0 
  4  6  1  0  0  0  0 
M  END
> <Name>
Crotonaldehyde, 3-methyl- (8CI)

> <Source>
DSSTox2DMolFile

> <Tox>
3.090

> <CAS>
107-86-8

$$$$

  CDK

  6  5  0  0  0  0  0  0  0  0999 V2000
    0.0000   -0.0000    0.0000 C   0  0  0  0  0  0  0  0  0  0  0  0
    0.0000   -1.3307    0.0000 C   0  0  0  0  0  0  0  0  0  0  0  0
    1.1509   -1.9943    0.0000 C   0  0  0  0  0  0  0  0  0  0  0  0
    2.3053   -1.3307    0.0000 C   0  0  0  0  0  0  0  0  0  0  0  0
    2.3053   -0.0000    0.0000 O   0  0  0  0  0  0  0  0  0  0  0  0
    3.4563   -1.9943    0.0000 C   0  0  0  0  0  0  0  0  0  0  0  0
  1  2  1  0  0  0  0 
  2  3  1  0  0  0  0 
  3  4  1  0  0  0  0 
  4  5  2  0  0  0  0 
  4  6  1  0  0  0  0 
M  END
> <Name>
2-Pentanone

> <Source>
DSSTox2DMolFile

> <Tox>
1.778

> <CAS>
107-87-9

$$$$

  CDK

  6  5  0  0  0  0  0  0  0  0999 V2000
    1.1691   -1.3355    0.0000 C   0  0  0  0  0  0  0  0  0  0  0  0
    2.3244   -1.9917    0.0000 C   0  0  0  0  0  0  0  0  0  0  0  0
    0.0000   -1.9917    0.0000 O   0  0  0  0  0  0  0  0  0  0  0  0
    3.4797   -1.3355    0.0000 C   0  0  0  0  0  0  0  0  0  0  0  0
    4.6211   -1.9917    0.0000 C   0  0  0  0  0  0  0  0  0  0  0  0
    3.4797   -0.0000    0.0000 O   0  0  0  0  0  0  0  0  0  0  0  0
  1  2  1  0  0  0  0 
  1  3  1  0  0  0  0 
  2  4  1  0  0  0  0 
  4  5  1  0  0  0  0 
  4  6  1  0  0  0  0 
M  END
> <Name>
1,3-Butanediol

> <Source>
DSSTox2DMolFile

> <Tox>
0.699

> <CAS>
107-88-0

$$$$

  CDK

  6  5  0  0  0  0  0  0  0  0999 V2000
    4.6084   -1.9954    0.0000 O   0  0  0  0  0  0  0  0  0  0  0  0
    3.4563   -1.3318    0.0000 C   0  0  0  0  0  0  0  0  0  0  0  0
    2.3042   -1.9954    0.0000 C   0  0  0  0  0  0  0  0  0  0  0  0
    3.4563   -0.0000    0.0000 O   0  0  0  0  0  0  0  0  0  0  0  0
    1.1521   -1.3318    0.0000 C   0  0  0  0  0  0  0  0  0  0  0  0
    0.0000   -1.9954    0.0000 C   0  0  0  0  0  0  0  0  0  0  0  0
  1  2  1  0  0  0  0 
  2  3  1  0  0  0  0 
  2  4  2  0  0  0  0 
  3  5  1  0  0  0  0 
  5  6  1  0  0  0  0 
M  END
> <Name>
Butanoic acid

> <Source>
DSSTox2DMolFile

> <Tox>
2.428

> <CAS>
107-92-6

$$$$

  CDK

  6  5  0  0  0  0  0  0  0  0999 V2000
    2.4323    2.0170    1.3221 C   0  0  0  0  0  0  0  0  0  0  0  0
    3.8259    1.5523    1.4284 C   0  0  0  0  0  0  0  0  0  0  0  0
    2.1412    3.3024    1.0948 C   0  0  0  0  0  0  0  0  0  0  0  0
    3.9668    0.2192    1.6314 O   0  0  0  0  0  0  0  0  0  0  0  0
    4.8664    2.1875    1.3614 O   0  0  0  0  0  0  0  0  0  0  0  0
    0.7528    3.7965    0.9809 C   0  0  0  0  0  0  0  0  0  0  0  0
  1  2  1  0  0  0  0 
  1  3  2  0  0  0  0 
  2  4  1  0  0  0  0 
  2  5  2  0  0  0  0 
  3  6  1  0  0  0  0 
M  END
> <Name>
2-Butenoic acid, (E)- (9CI)

> <Source>
NIST3DMolFile

> <Tox>
2.455

> <CAS>
107-93-7

$$$$

  CDK

  6  5  0  0  0  0  0  0  0  0999 V2000
    3.4563   -0.0000    0.0000 O   0  0  0  0  0  0  0  0  0  0  0  0
    3.4563   -1.3318    0.0000 C   0  0  0  0  0  0  0  0  0  0  0  0
    4.6084   -1.9954    0.0000 O   0  0  0  0  0  0  0  0  0  0  0  0
    2.3042   -1.9954    0.0000 C   0  0  0  0  0  0  0  0  0  0  0  0
    1.1521   -1.3318    0.0000 C   0  0  0  0  0  0  0  0  0  0  0  0
    0.0000   -1.9954    0.0000 Cl  0  0  0  0  0  0  0  0  0  0  0  0
  1  2  2  0  0  0  0 
  2  3  1  0  0  0  0 
  2  4  1  0  0  0  0 
  4  5  1  0  0  0  0 
  5  6  1  0  0  0  0 
M  END
> <Name>
Propanoic acid, 3-chloro-

> <Source>
DSSTox2DMolFile

> <Tox>
2.668

> <CAS>
107-94-8

$$$$

  CDK

  6  5  0  0  0  0  0  0  0  0999 V2000
    3.4563   -0.0000    0.0000 O   0  0  0  0  0  0  0  0  0  0  0  0
    3.4563   -1.3318    0.0000 N   0  0  0  0  0  0  0  0  0  0  0  0
    2.3042   -1.9954    0.0000 C   0  0  0  0  0  0  0  0  0  0  0  0
    4.6084   -1.9954    0.0000 O   0  0  0  0  0  0  0  0  0  0  0  0
    1.1521   -1.3318    0.0000 C   0  0  0  0  0  0  0  0  0  0  0  0
    0.0000   -1.9954    0.0000 C   0  0  0  0  0  0  0  0  0  0  0  0
  1  2  2  0  0  0  0 
  2  3  1  0  0  0  0 
  2  4  1  0  0  0  0 
  3  5  1  0  0  0  0 
  5  6  1  0  0  0  0 
M  CHG  1   2   1
M  CHG  1   4  -1
M  END
> <Name>
Propane, 1-nitro-

> <Source>
DSSTox2DMolFile

> <Tox>
2.010

> <CAS>
108-03-2

$$$$

  CDK

  6  5  0  0  0  0  0  0  0  0999 V2000
    4.6084   -1.9954    0.0000 C   0  0  0  0  0  0  0  0  0  0  0  0
    3.4563   -1.3318    0.0000 C   0  0  0  0  0  0  0  0  0  0  0  0
    3.4563   -0.0000    0.0000 O   0  0  0  0  0  0  0  0  0  0  0  0
    2.3042   -1.9954    0.0000 O   0  0  0  0  0  0  0  0  0  0  0  0
    1.1521   -1.3318    0.0000 C   0  0  0  0  0  0  0  0  0  0  0  0
    0.0000   -1.9954    0.0000 C   0  0  0  0  0  0  0  0  0  0  0  0
  1  2  1  0  0  0  0 
  2  3  2  0  0  0  0 
  2  4  1  0  0  0  0 
  4  5  1  0  0  0  0 
  5  6  2  0  0  0  0 
M  END
> <Name>
Acetic acid ethenyl ester

> <Source>
DSSTox2DMolFile

> <Tox>
2.141

> <CAS>
108-05-4

$$$$

  CDK

  7  6  0  0  0  0  0  0  0  0999 V2000
    4.6073   -1.9950    0.0000 C   0  0  0  0  0  0  0  0  0  0  0  0
    3.4555   -1.3315    0.0000 C   0  0  0  0  0  0  0  0  0  0  0  0
    3.4555   -0.0000    0.0000 O   0  0  0  0  0  0  0  0  0  0  0  0
    2.3037   -1.9950    0.0000 C   0  0  0  0  0  0  0  0  0  0  0  0
    1.1518   -1.3315    0.0000 C   0  0  0  0  0  0  0  0  0  0  0  0
    0.0000   -1.9950    0.0000 C   0  0  0  0  0  0  0  0  0  0  0  0
    1.1518   -0.0000    0.0000 C   0  0  0  0  0  0  0  0  0  0  0  0
  1  2  1  0  0  0  0 
  2  3  2  0  0  0  0 
  2  4  1  0  0  0  0 
  4  5  1  0  0  0  0 
  5  6  1  0  0  0  0 
  5  7  1  0  0  0  0 
M  END
> <Name>
2-Pentanone, 4-methyl-

> <Source>
DSSTox2DMolFile

> <Tox>
1.792

> <CAS>
108-10-1

$$$$

  CDK

  7  6  0  0  0  0  0  0  0  0999 V2000
    2.3037   -1.9950    0.0000 O   0  0  0  0  0  0  0  0  0  0  0  0
    3.4555   -1.3315    0.0000 C   0  0  0  0  0  0  0  0  0  0  0  0
    1.1518   -1.3315    0.0000 C   0  0  0  0  0  0  0  0  0  0  0  0
    3.4555   -0.0000    0.0000 C   0  0  0  0  0  0  0  0  0  0  0  0
    4.6073   -1.9950    0.0000 C   0  0  0  0  0  0  0  0  0  0  0  0
    0.0000   -1.9950    0.0000 C   0  0  0  0  0  0  0  0  0  0  0  0
    1.1518   -0.0000    0.0000 O   0  0  0  0  0  0  0  0  0  0  0  0
  1  2  1  0  0  0  0 
  1  3  1  0  0  0  0 
  2  4  1  0  0  0  0 
  2  5  1  0  0  0  0 
  3  6  1  0  0  0  0 
  3  7  2  0  0  0  0 
M  END
> <Name>
Acetic acid, 1-methylethyl ester

> <Source>
DSSTox2DMolFile

> <Tox>
1.410

> <CAS>
108-21-4

$$$$

  CDK

  7  6  0  0  0  0  0  0  0  0999 V2000
    1.1505   -0.6719    0.0000 C   0  0  0  0  0  0  0  0  0  0  0  0
    1.1505   -1.9973    0.0000 O   0  0  0  0  0  0  0  0  0  0  0  0
    2.3010   -0.0000    0.0000 O   0  0  0  0  0  0  0  0  0  0  0  0
    0.0000   -0.0000    0.0000 C   0  0  0  0  0  0  0  0  0  0  0  0
    3.4515   -0.6719    0.0000 C   0  0  0  0  0  0  0  0  0  0  0  0
    3.4515   -1.9973    0.0000 C   0  0  0  0  0  0  0  0  0  0  0  0
    4.6020   -0.0000    0.0000 C   0  0  0  0  0  0  0  0  0  0  0  0
  1  2  2  0  0  0  0 
  1  3  1  0  0  0  0 
  1  4  1  0  0  0  0 
  3  5  1  0  0  0  0 
  5  6  2  0  0  0  0 
  5  7  1  0  0  0  0 
M  END
> <Name>
1-Propen-2-ol, acetate

> <Source>
DSSTox2DMolFile

> <Tox>
2.511

> <CAS>
108-22-5

$$$$

  CDK

  7  7  0  0  0  0  0  0  0  0999 V2000
   -0.0929    0.9103   -0.3497 O   0  0  0  0  0  0  0  0  0  0  0  0
   -1.1210    0.0921    0.0385 C   0  0  0  0  0  0  0  0  0  0  0  0
    1.1275    0.1516   -0.4536 C   0  0  0  0  0  0  0  0  0  0  0  0
   -0.6899   -1.3460    0.2103 C   0  0  0  0  0  0  0  0  0  0  0  0
   -2.1829    0.6533    0.1647 O   0  0  0  0  0  0  0  0  0  0  0  0
    0.7929   -1.3267   -0.1500 C   0  0  0  0  0  0  0  0  0  0  0  0
    2.1631    0.7224    0.5016 C   0  0  0  0  0  0  0  0  0  0  0  0
  1  2  1  0  0  0  0 
  1  3  1  0  0  0  0 
  2  4  1  0  0  0  0 
  2  5  2  0  0  0  0 
  6  3  1  0  0  0  0 
  3  7  1  0  0  0  0 
  4  6  1  0  0  0  0 
M  END
> <Name>
2(3H)-Furanone, dihydro-5-methyl-

> <Source>
DougDB3DMolFile

> <Tox>
1.431

> <CAS>
108-29-2

$$$$

  CDK

  8  8  0  0  0  0  0  0  0  0999 V2000
    2.2879   -1.9949    0.0000 C   0  0  0  0  0  0  0  0  0  0  0  0
    1.1319   -1.3326    0.0000 C   0  0  0  0  0  0  0  0  0  0  0  0
    2.2879   -3.3275    0.0000 C   0  0  0  0  0  0  0  0  0  0  0  0
    1.1319   -0.0000    0.0000 O   0  0  0  0  0  0  0  0  0  0  0  0
    0.0000   -1.9949    0.0000 C   0  0  0  0  0  0  0  0  0  0  0  0
    1.1319   -3.9898    0.0000 C   0  0  0  0  0  0  0  0  0  0  0  0
    3.4559   -4.0139    0.0000 C   0  0  0  0  0  0  0  0  0  0  0  0
    0.0000   -3.3275    0.0000 C   0  0  0  0  0  0  0  0  0  0  0  0
  1  2  1  0  0  0  0 
  1  3  2  0  0  0  0 
  2  4  1  0  0  0  0 
  2  5  2  0  0  0  0 
  3  6  1  0  0  0  0 
  3  7  1  0  0  0  0 
  8  5  1  0  0  0  0 
  8  6  2  0  0  0  0 
M  END
> <Name>
Phenol, 3-methyl-

> <Source>
DSSTox2DMolFile

> <Tox>
2.920

> <CAS>
108-39-4

$$$$

  CDK

  8  8  0  0  0  0  0  0  0  0999 V2000
    0.0000   -2.6588    0.0000 Cl  0  0  0  0  0  0  0  0  0  0  0  0
    1.1520   -1.9953    0.0000 C   0  0  0  0  0  0  0  0  0  0  0  0
    1.1520   -0.6635    0.0000 C   0  0  0  0  0  0  0  0  0  0  0  0
    2.3040   -2.6588    0.0000 C   0  0  0  0  0  0  0  0  0  0  0  0
    2.3040   -0.0000    0.0000 C   0  0  0  0  0  0  0  0  0  0  0  0
    3.4560   -1.9953    0.0000 C   0  0  0  0  0  0  0  0  0  0  0  0
    3.4560   -0.6635    0.0000 C   0  0  0  0  0  0  0  0  0  0  0  0
    4.6080   -2.6588    0.0000 O   0  0  0  0  0  0  0  0  0  0  0  0
  1  2  1  0  0  0  0 
  2  3  2  0  0  0  0 
  2  4  1  0  0  0  0 
  3  5  1  0  0  0  0 
  6  4  2  0  0  0  0 
  5  7  2  0  0  0  0 
  7  6  1  0  0  0  0 
  6  8  1  0  0  0  0 
M  END
> <Name>
Phenol, 3-chloro-

> <Source>
DSSTox2DMolFile

> <Tox>
3.870

> <CAS>
108-43-0

$$$$

  CDK

  8  8  0  0  0  0  0  0  0  0999 V2000
    2.3043   -1.3275    0.0000 C   0  0  0  0  0  0  0  0  0  0  0  0
    3.4564   -1.9853    0.0000 C   0  0  0  0  0  0  0  0  0  0  0  0
    1.1521   -1.9853    0.0000 C   0  0  0  0  0  0  0  0  0  0  0  0
    2.3043   -0.0000    0.0000 N   0  0  0  0  0  0  0  0  0  0  0  0
    3.4564   -3.3129    0.0000 C   0  0  0  0  0  0  0  0  0  0  0  0
    1.1521   -3.3129    0.0000 C   0  0  0  0  0  0  0  0  0  0  0  0
    2.3043   -3.9866    0.0000 C   0  0  0  0  0  0  0  0  0  0  0  0
    0.0000   -3.9866    0.0000 C   0  0  0  0  0  0  0  0  0  0  0  0
  1  2  2  0  0  0  0 
  1  3  1  0  0  0  0 
  1  4  1  0  0  0  0 
  2  5  1  0  0  0  0 
  6  3  2  0  0  0  0 
  5  7  2  0  0  0  0 
  7  6  1  0  0  0  0 
  6  8  1  0  0  0  0 
M  END
> <Name>
Benzenamine, 3-methyl-

> <Source>
DSSTox2DMolFile

> <Tox>
2.720

> <CAS>
108-44-1

$$$$

  CDK

  8  8  0  0  0  0  0  0  0  0999 V2000
    4.6080   -2.6588    0.0000 O   0  0  0  0  0  0  0  0  0  0  0  0
    3.4560   -1.9953    0.0000 C   0  0  0  0  0  0  0  0  0  0  0  0
    2.3040   -2.6588    0.0000 C   0  0  0  0  0  0  0  0  0  0  0  0
    3.4560   -0.6635    0.0000 C   0  0  0  0  0  0  0  0  0  0  0  0
    1.1520   -1.9953    0.0000 C   0  0  0  0  0  0  0  0  0  0  0  0
    2.3040   -0.0000    0.0000 C   0  0  0  0  0  0  0  0  0  0  0  0
    1.1520   -0.6635    0.0000 C   0  0  0  0  0  0  0  0  0  0  0  0
    0.0000   -2.6588    0.0000 O   0  0  0  0  0  0  0  0  0  0  0  0
  1  2  1  0  0  0  0 
  2  3  2  0  0  0  0 
  2  4  1  0  0  0  0 
  3  5  1  0  0  0  0 
  6  4  2  0  0  0  0 
  5  7  2  0  0  0  0 
  5  8  1  0  0  0  0 
  7  6  1  0  0  0  0 
M  END
> <Name>
1,3-Benzenediol

> <Source>
DSSTox2DMolFile

> <Tox>
2.350

> <CAS>
108-46-3

$$$$

  CDK

  8  8  0  0  0  0  0  0  0  0999 V2000
   -1.1853   -0.3150   -0.0012 C   0  0  0  0  0  0  0  0  0  0  0  0
    0.0292   -1.0067    0.0041 C   0  0  0  0  0  0  0  0  0  0  0  0
   -1.2157    1.0478   -0.0045 N   0  0  0  0  0  0  0  0  0  0  0  0
   -2.4891   -1.0359    0.0000 C   0  0  0  0  0  0  0  0  0  0  0  0
    1.2293   -0.2919    0.0055 C   0  0  0  0  0  0  0  0  0  0  0  0
   -0.0574    1.7394   -0.0009 C   0  0  0  0  0  0  0  0  0  0  0  0
    1.1837    1.1020    0.0048 C   0  0  0  0  0  0  0  0  0  0  0  0
    2.5305   -1.0061   -0.0049 C   0  0  0  0  0  0  0  0  0  0  0  0
  1  2  1  0  0  0  0 
  1  3  2  0  0  0  0 
  1  4  1  0  0  0  0 
  2  5  2  0  0  0  0 
  6  3  1  0  0  0  0 
  5  7  1  0  0  0  0 
  5  8  1  0  0  0  0 
  7  6  2  0  0  0  0 
M  END
> <Name>
Pyridine, 2,4-dimethyl-

> <Source>
DougDB3DMolFile

> <Tox>
2.350

> <CAS>
108-47-4

$$$$

  CDK

  8  8  0  0  0  0  0  0  0  0999 V2000
   -1.1764    0.2906   -0.0008 C   0  0  0  0  0  0  0  0  0  0  0  0
   -1.2013   -1.1093   -0.0001 C   0  0  0  0  0  0  0  0  0  0  0  0
    0.0001    0.9712   -0.0016 N   0  0  0  0  0  0  0  0  0  0  0  0
   -2.4350    1.0886    0.0009 C   0  0  0  0  0  0  0  0  0  0  0  0
   -0.0002   -1.8091    0.0004 C   0  0  0  0  0  0  0  0  0  0  0  0
    1.1765    0.2905   -0.0009 C   0  0  0  0  0  0  0  0  0  0  0  0
    1.2010   -1.1094    0.0001 C   0  0  0  0  0  0  0  0  0  0  0  0
    2.4353    1.0884    0.0008 C   0  0  0  0  0  0  0  0  0  0  0  0
  1  2  1  0  0  0  0 
  1  3  2  0  0  0  0 
  1  4  1  0  0  0  0 
  2  5  2  0  0  0  0 
  6  3  1  0  0  0  0 
  5  7  1  0  0  0  0 
  7  6  2  0  0  0  0 
  6  8  1  0  0  0  0 
M  END
> <Name>
Pyridine, 2,6-dimethyl-

> <Source>
DougDB3DMolFile

> <Tox>
2.190

> <CAS>
108-48-5

$$$$

  CDK

  9  8  0  0  0  0  0  0  0  0999 V2000
    2.3121   -1.3360    0.0000 C   0  0  0  0  0  0  0  0  0  0  0  0
    3.4681   -1.9936    0.0000 C   0  0  0  0  0  0  0  0  0  0  0  0
    1.1560   -1.9936    0.0000 O   0  0  0  0  0  0  0  0  0  0  0  0
    2.3121   -0.0000    0.0000 O   0  0  0  0  0  0  0  0  0  0  0  0
    4.6103   -1.3360    0.0000 C   0  0  0  0  0  0  0  0  0  0  0  0
    0.0000   -1.3360    0.0000 C   0  0  0  0  0  0  0  0  0  0  0  0
    5.7663   -1.9936    0.0000 O   0  0  0  0  0  0  0  0  0  0  0  0
    4.6103   -0.0000    0.0000 O   0  0  0  0  0  0  0  0  0  0  0  0
    6.9224   -1.3360    0.0000 C   0  0  0  0  0  0  0  0  0  0  0  0
  1  2  1  0  0  0  0 
  1  3  1  0  0  0  0 
  1  4  2  0  0  0  0 
  2  5  1  0  0  0  0 
  3  6  1  0  0  0  0 
  5  7  1  0  0  0  0 
  5  8  2  0  0  0  0 
  7  9  1  0  0  0  0 
M  END
> <Name>
Propanedioic acid, dimethyl ester

> <Source>
DSSTox2DMolFile

> <Tox>
1.713

> <CAS>
108-59-8

$$$$

  CDK

  9  8  0  0  0  0  0  0  0  0999 V2000
    5.1742    2.6371    1.7257 C   0  0  0  0  0  0  0  0  0  0  0  0
    3.9312    1.9066    1.2679 C   0  0  0  0  0  0  0  0  0  0  0  0
    6.4504    2.0804    1.0929 C   0  0  0  0  0  0  0  0  0  0  0  0
    3.0197    1.7477    2.2704 O   0  0  0  0  0  0  0  0  0  0  0  0
    3.6682    1.4898    0.1564 O   0  0  0  0  0  0  0  0  0  0  0  0
    6.8309    0.7497    1.7208 C   0  0  0  0  0  0  0  0  0  0  0  0
    7.5829    3.0818    1.2600 C   0  0  0  0  0  0  0  0  0  0  0  0
    1.7803    1.1021    1.9728 C   0  0  0  0  0  0  0  0  0  0  0  0
    0.9628    1.1297    3.2499 C   0  0  0  0  0  0  0  0  0  0  0  0
  1  2  1  0  0  0  0 
  1  3  1  0  0  0  0 
  2  4  1  0  0  0  0 
  2  5  2  0  0  0  0 
  3  6  1  0  0  0  0 
  3  7  1  0  0  0  0 
  4  8  1  0  0  0  0 
  8  9  1  0  0  0  0 
M  END
> <Name>
Butyric acid, 3-methyl-, ethyl ester (6CI,7CI,8CI)

> <Source>
NIST3DMolFile

> <Tox>
2.277

> <CAS>
108-64-5

$$$$

  CDK

  9  9  0  0  0  0  0  0  0  0999 V2000
    0.0000   -2.3037    0.0000 C   0  0  0  0  0  0  0  0  0  0  0  0
    1.3315   -2.3037    0.0000 C   0  0  0  0  0  0  0  0  0  0  0  0
    1.9950   -1.1518    0.0000 C   0  0  0  0  0  0  0  0  0  0  0  0
    1.9950   -3.4555    0.0000 C   0  0  0  0  0  0  0  0  0  0  0  0
    3.3265   -1.1518    0.0000 C   0  0  0  0  0  0  0  0  0  0  0  0
    3.3265   -3.4555    0.0000 C   0  0  0  0  0  0  0  0  0  0  0  0
    3.9899   -0.0000    0.0000 C   0  0  0  0  0  0  0  0  0  0  0  0
    3.9899   -2.3037    0.0000 C   0  0  0  0  0  0  0  0  0  0  0  0
    3.9899   -4.6073    0.0000 N   0  0  0  0  0  0  0  0  0  0  0  0
  1  2  1  0  0  0  0 
  2  3  2  0  0  0  0 
  2  4  1  0  0  0  0 
  3  5  1  0  0  0  0 
  6  4  2  0  0  0  0 
  5  7  1  0  0  0  0 
  5  8  2  0  0  0  0 
  8  6  1  0  0  0  0 
  6  9  1  0  0  0  0 
M  END
> <Name>
Benzenamine, 3,5-dimethyl-

> <Source>
DSSTox2DMolFile

> <Tox>
2.640

> <CAS>
108-69-0

$$$$

  CDK

  9  9  0  0  0  0  0  0  0  0999 V2000
    1.3315   -2.3037    0.0000 C   0  0  0  0  0  0  0  0  0  0  0  0
    1.9950   -1.1518    0.0000 C   0  0  0  0  0  0  0  0  0  0  0  0
    1.9950   -3.4555    0.0000 C   0  0  0  0  0  0  0  0  0  0  0  0
    0.0000   -2.3037    0.0000 Cl  0  0  0  0  0  0  0  0  0  0  0  0
    3.3265   -1.1518    0.0000 C   0  0  0  0  0  0  0  0  0  0  0  0
    3.3265   -3.4555    0.0000 C   0  0  0  0  0  0  0  0  0  0  0  0
    3.9899   -2.3037    0.0000 C   0  0  0  0  0  0  0  0  0  0  0  0
    3.9899   -0.0000    0.0000 Cl  0  0  0  0  0  0  0  0  0  0  0  0
    3.9899   -4.6073    0.0000 Cl  0  0  0  0  0  0  0  0  0  0  0  0
  1  2  2  0  0  0  0 
  1  3  1  0  0  0  0 
  1  4  1  0  0  0  0 
  2  5  1  0  0  0  0 
  6  3  2  0  0  0  0 
  5  7  2  0  0  0  0 
  5  8  1  0  0  0  0 
  7  6  1  0  0  0  0 
  6  9  1  0  0  0  0 
M  END
> <Name>
Benzene, 1,3,5-trichloro-

> <Source>
DSSTox2DMolFile

> <Tox>
3.870

> <CAS>
108-70-3

$$$$

  CDK

  9  9  0  0  0  0  0  0  0  0999 V2000
    3.7554    3.5751    0.8036 C   0  0  0  0  0  0  0  0  0  0  0  0
    4.3762    4.7887    0.8830 O   0  0  0  0  0  0  0  0  0  0  0  0
    4.4495    2.3963    0.4937 C   0  0  0  0  0  0  0  0  0  0  0  0
    2.3784    3.5764    1.0514 C   0  0  0  0  0  0  0  0  0  0  0  0
    3.7249    1.1984    0.4354 C   0  0  0  0  0  0  0  0  0  0  0  0
    1.6925    2.3581    0.9828 C   0  0  0  0  0  0  0  0  0  0  0  0
    4.3118    0.0000    0.1425 O   0  0  0  0  0  0  0  0  0  0  0  0
    2.3478    1.1577    0.6761 C   0  0  0  0  0  0  0  0  0  0  0  0
    0.3519    2.4156    1.2337 O   0  0  0  0  0  0  0  0  0  0  0  0
  1  2  1  0  0  0  0 
  1  3  2  0  0  0  0 
  4  1  1  0  0  0  0 
  3  5  1  0  0  0  0 
  6  4  2  0  0  0  0 
  5  7  1  0  0  0  0 
  5  8  2  0  0  0  0 
  8  6  1  0  0  0  0 
  6  9  1  0  0  0  0 
M  END
> <Name>
1,3,5-Benzenetriol

> <Source>
NIST3DMolFile

> <Tox>
1.740

> <CAS>
108-73-6

$$$$

  CDK

  7  7  0  0  0  0  0  0  0  0999 V2000
    0.0000   -1.1527    0.0000 C   0  0  0  0  0  0  0  0  0  0  0  0
    1.3282   -1.1527    0.0000 C   0  0  0  0  0  0  0  0  0  0  0  0
    2.0023   -0.0000    0.0000 C   0  0  0  0  0  0  0  0  0  0  0  0
    2.0023   -2.3054    0.0000 C   0  0  0  0  0  0  0  0  0  0  0  0
    3.3305   -0.0000    0.0000 C   0  0  0  0  0  0  0  0  0  0  0  0
    3.3305   -2.3054    0.0000 C   0  0  0  0  0  0  0  0  0  0  0  0
    3.9886   -1.1527    0.0000 C   0  0  0  0  0  0  0  0  0  0  0  0
  1  2  1  0  0  0  0 
  2  3  2  0  0  0  0 
  2  4  1  0  0  0  0 
  3  5  1  0  0  0  0 
  6  4  2  0  0  0  0 
  5  7  2  0  0  0  0 
  7  6  1  0  0  0  0 
M  END
> <Name>
Benzene, methyl-

> <Source>
DSSTox2DMolFile

> <Tox>
3.250

> <CAS>
108-88-3

$$$$

  CDK

  7  7  0  0  0  0  0  0  0  0999 V2000
    3.9916   -1.1496    0.0000 N   0  0  0  0  0  0  0  0  0  0  0  0
    3.3250   -2.3032    0.0000 C   0  0  0  0  0  0  0  0  0  0  0  0
    3.3250   -0.0000    0.0000 C   0  0  0  0  0  0  0  0  0  0  0  0
    1.9958   -2.3032    0.0000 C   0  0  0  0  0  0  0  0  0  0  0  0
    1.9958   -0.0000    0.0000 C   0  0  0  0  0  0  0  0  0  0  0  0
    1.3292   -1.1496    0.0000 C   0  0  0  0  0  0  0  0  0  0  0  0
    0.0000   -1.1496    0.0000 C   0  0  0  0  0  0  0  0  0  0  0  0
  1  2  2  0  0  0  0 
  1  3  1  0  0  0  0 
  2  4  1  0  0  0  0 
  5  3  2  0  0  0  0 
  4  6  2  0  0  0  0 
  6  5  1  0  0  0  0 
  6  7  1  0  0  0  0 
M  END
> <Name>
Pyridine, 4-methyl-

> <Source>
DSSTox2DMolFile

> <Tox>
2.120

> <CAS>
108-89-4

$$$$

  CDK

  7  7  0  0  0  0  0  0  0  0999 V2000
    0.0000   -1.1496    0.0000 Cl  0  0  0  0  0  0  0  0  0  0  0  0
    1.3292   -1.1496    0.0000 C   0  0  0  0  0  0  0  0  0  0  0  0
    1.9958   -0.0000    0.0000 C   0  0  0  0  0  0  0  0  0  0  0  0
    1.9958   -2.3032    0.0000 C   0  0  0  0  0  0  0  0  0  0  0  0
    3.3250   -0.0000    0.0000 C   0  0  0  0  0  0  0  0  0  0  0  0
    3.3250   -2.3032    0.0000 C   0  0  0  0  0  0  0  0  0  0  0  0
    3.9916   -1.1496    0.0000 C   0  0  0  0  0  0  0  0  0  0  0  0
  1  2  1  0  0  0  0 
  2  3  2  0  0  0  0 
  2  4  1  0  0  0  0 
  3  5  1  0  0  0  0 
  6  4  2  0  0  0  0 
  5  7  2  0  0  0  0 
  7  6  1  0  0  0  0 
M  END
> <Name>
Benzene, chloro-

> <Source>
DSSTox2DMolFile

> <Tox>
2.870

> <CAS>
108-90-7

$$$$

  CDK

  7  7  0  0  0  0  0  0  0  0999 V2000
    1.9958   -0.0000    0.0000 C   0  0  0  0  0  0  0  0  0  0  0  0
    3.3250   -0.0000    0.0000 C   0  0  0  0  0  0  0  0  0  0  0  0
    1.3292   -1.1496    0.0000 C   0  0  0  0  0  0  0  0  0  0  0  0
    3.9916   -1.1496    0.0000 C   0  0  0  0  0  0  0  0  0  0  0  0
    1.9958   -2.3032    0.0000 C   0  0  0  0  0  0  0  0  0  0  0  0
    0.0000   -1.1496    0.0000 O   0  0  0  0  0  0  0  0  0  0  0  0
    3.3250   -2.3032    0.0000 C   0  0  0  0  0  0  0  0  0  0  0  0
  1  2  1  0  0  0  0 
  1  3  1  0  0  0  0 
  2  4  1  0  0  0  0 
  5  3  1  0  0  0  0 
  3  6  1  0  0  0  0 
  4  7  1  0  0  0  0 
  7  5  1  0  0  0  0 
M  END
> <Name>
Cyclohexanol

> <Source>
DSSTox2DMolFile

> <Tox>
2.234

> <CAS>
108-93-0

$$$$

  CDK

  7  7  0  0  0  0  0  0  0  0999 V2000
    0.0000   -1.1496    0.0000 O   0  0  0  0  0  0  0  0  0  0  0  0
    1.3292   -1.1496    0.0000 C   0  0  0  0  0  0  0  0  0  0  0  0
    1.9958   -0.0000    0.0000 C   0  0  0  0  0  0  0  0  0  0  0  0
    1.9958   -2.3032    0.0000 C   0  0  0  0  0  0  0  0  0  0  0  0
    3.3250   -0.0000    0.0000 C   0  0  0  0  0  0  0  0  0  0  0  0
    3.3250   -2.3032    0.0000 C   0  0  0  0  0  0  0  0  0  0  0  0
    3.9916   -1.1496    0.0000 C   0  0  0  0  0  0  0  0  0  0  0  0
  1  2  2  0  0  0  0 
  2  3  1  0  0  0  0 
  2  4  1  0  0  0  0 
  3  5  1  0  0  0  0 
  6  4  1  0  0  0  0 
  5  7  1  0  0  0  0 
  7  6  1  0  0  0  0 
M  END
> <Name>
Cyclohexanone

> <Source>
DSSTox2DMolFile

> <Tox>
1.767

> <CAS>
108-94-1

$$$$

  CDK

  7  7  0  0  0  0  0  0  0  0999 V2000
    0.0000   -1.1496    0.0000 O   0  0  0  0  0  0  0  0  0  0  0  0
    1.3292   -1.1496    0.0000 C   0  0  0  0  0  0  0  0  0  0  0  0
    1.9958   -0.0000    0.0000 C   0  0  0  0  0  0  0  0  0  0  0  0
    1.9958   -2.3032    0.0000 C   0  0  0  0  0  0  0  0  0  0  0  0
    3.3250   -0.0000    0.0000 C   0  0  0  0  0  0  0  0  0  0  0  0
    3.3250   -2.3032    0.0000 C   0  0  0  0  0  0  0  0  0  0  0  0
    3.9916   -1.1496    0.0000 C   0  0  0  0  0  0  0  0  0  0  0  0
  1  2  1  0  0  0  0 
  2  3  2  0  0  0  0 
  2  4  1  0  0  0  0 
  3  5  1  0  0  0  0 
  6  4  2  0  0  0  0 
  5  7  2  0  0  0  0 
  7  6  1  0  0  0  0 
M  END
> <Name>
Phenol, pure

> <Source>
DSSTox2DMolFile

> <Tox>
2.650

> <CAS>
108-95-2

$$$$

  CDK

  7  7  0  0  0  0  0  0  0  0999 V2000
    1.1527   -1.3282    0.0000 C   0  0  0  0  0  0  0  0  0  0  0  0
    2.3054   -2.0023    0.0000 C   0  0  0  0  0  0  0  0  0  0  0  0
    0.0000   -2.0023    0.0000 C   0  0  0  0  0  0  0  0  0  0  0  0
    1.1527   -0.0000    0.0000 S   0  0  0  0  0  0  0  0  0  0  0  0
    2.3054   -3.3305    0.0000 C   0  0  0  0  0  0  0  0  0  0  0  0
    0.0000   -3.3305    0.0000 C   0  0  0  0  0  0  0  0  0  0  0  0
    1.1527   -3.9886    0.0000 C   0  0  0  0  0  0  0  0  0  0  0  0
  1  2  2  0  0  0  0 
  1  3  1  0  0  0  0 
  1  4  1  0  0  0  0 
  2  5  1  0  0  0  0 
  6  3  2  0  0  0  0 
  5  7  2  0  0  0  0 
  7  6  1  0  0  0  0 
M  END
> <Name>
Benzenethiol

> <Source>
DSSTox2DMolFile

> <Tox>
4.660

> <CAS>
108-98-5

$$$$

  CDK

  7  7  0  0  0  0  0  0  0  0999 V2000
    0.0000   -1.1496    0.0000 C   0  0  0  0  0  0  0  0  0  0  0  0
    1.3292   -1.1496    0.0000 N   0  0  0  0  0  0  0  0  0  0  0  0
    1.9958   -0.0000    0.0000 C   0  0  0  0  0  0  0  0  0  0  0  0
    1.9958   -2.3032    0.0000 C   0  0  0  0  0  0  0  0  0  0  0  0
    3.3250   -0.0000    0.0000 C   0  0  0  0  0  0  0  0  0  0  0  0
    3.3250   -2.3032    0.0000 C   0  0  0  0  0  0  0  0  0  0  0  0
    3.9916   -1.1496    0.0000 N   0  0  0  0  0  0  0  0  0  0  0  0
  1  2  1  0  0  0  0 
  2  3  1  0  0  0  0 
  2  4  1  0  0  0  0 
  3  5  1  0  0  0  0 
  6  4  1  0  0  0  0 
  5  7  1  0  0  0  0 
  7  6  1  0  0  0  0 
M  END
> <Name>
Piperazine, 1-methyl-

> <Source>
DSSTox2DMolFile

> <Tox>
2.040

> <CAS>
109-01-3

$$$$

  CDK

  7  7  0  0  0  0  0  0  0  0999 V2000
    0.0000    1.5242    0.0000 C   0  0  0  0  0  0  0  0  0  0  0  0
    0.8637    2.0323    0.0000 C   0  0  0  0  0  0  0  0  0  0  0  0
    0.0000    0.5081    0.0000 C   0  0  0  0  0  0  0  0  0  0  0  0
    1.6767    1.5242    0.0000 C   0  0  0  0  0  0  0  0  0  0  0  0
    0.8637    0.0000    0.0000 N   0  0  0  0  0  0  0  0  0  0  0  0
    1.6767    0.5081    0.0000 C   0  0  0  0  0  0  0  0  0  0  0  0
    2.5912    0.0000    0.0000 Br  0  0  0  0  0  0  0  0  0  0  0  0
  1  2  2  0  0  0  0 
  3  1  1  0  0  0  0 
  2  4  1  0  0  0  0 
  5  3  2  0  0  0  0 
  4  6  2  0  0  0  0 
  6  5  1  0  0  0  0 
  6  7  1  0  0  0  0 
M  END
> <Name>
Pyridine, 2-bromo-

> <Source>
NIST2DMolFile

> <Tox>
2.460

> <CAS>
109-04-6

$$$$

  CDK

  7  7  0  0  0  0  0  0  0  0999 V2000
    1.9958   -2.3032    0.0000 N   0  0  0  0  0  0  0  0  0  0  0  0
    1.3292   -1.1496    0.0000 C   0  0  0  0  0  0  0  0  0  0  0  0
    3.3250   -2.3032    0.0000 C   0  0  0  0  0  0  0  0  0  0  0  0
    0.0000   -1.1496    0.0000 C   0  0  0  0  0  0  0  0  0  0  0  0
    1.9958   -0.0000    0.0000 C   0  0  0  0  0  0  0  0  0  0  0  0
    3.9916   -1.1496    0.0000 C   0  0  0  0  0  0  0  0  0  0  0  0
    3.3250   -0.0000    0.0000 C   0  0  0  0  0  0  0  0  0  0  0  0
  1  2  2  0  0  0  0 
  1  3  1  0  0  0  0 
  2  4  1  0  0  0  0 
  2  5  1  0  0  0  0 
  6  3  2  0  0  0  0 
  5  7  2  0  0  0  0 
  7  6  1  0  0  0  0 
M  END
> <Name>
Pyridine, 2-methyl-

> <Source>
DSSTox2DMolFile

> <Tox>
1.990

> <CAS>
109-06-8

$$$$

  CDK

  7  7  0  0  0  0  0  0  0  0999 V2000
    0.0000    0.8568    0.0000 C   0  0  0  0  0  0  0  0  0  0  0  0
    1.0080    0.8568    0.0000 C   0  0  0  0  0  0  0  0  0  0  0  0
    1.5120    1.7136    0.0000 C   0  0  0  0  0  0  0  0  0  0  0  0
    1.5120    0.0000    0.0000 N   0  0  0  0  0  0  0  0  0  0  0  0
    2.5199    1.7136    0.0000 N   0  0  0  0  0  0  0  0  0  0  0  0
    2.5199    0.0000    0.0000 C   0  0  0  0  0  0  0  0  0  0  0  0
    3.0239    0.8568    0.0000 C   0  0  0  0  0  0  0  0  0  0  0  0
  1  2  1  0  0  0  0 
  3  2  2  0  0  0  0 
  2  4  1  0  0  0  0 
  5  3  1  0  0  0  0 
  4  6  2  0  0  0  0 
  7  5  2  0  0  0  0 
  6  7  1  0  0  0  0 
M  END
> <Name>
Pyrazine, 2-methyl-

> <Source>
NIST2DMolFile

> <Tox>
1.910

> <CAS>
109-08-0

$$$$

  CDK

  7  7  0  0  0  0  0  0  0  0999 V2000
    1.9958   -2.3032    0.0000 N   0  0  0  0  0  0  0  0  0  0  0  0
    1.3292   -1.1496    0.0000 C   0  0  0  0  0  0  0  0  0  0  0  0
    3.3250   -2.3032    0.0000 C   0  0  0  0  0  0  0  0  0  0  0  0
    1.9958   -0.0000    0.0000 C   0  0  0  0  0  0  0  0  0  0  0  0
    0.0000   -1.1496    0.0000 Cl  0  0  0  0  0  0  0  0  0  0  0  0
    3.9916   -1.1496    0.0000 C   0  0  0  0  0  0  0  0  0  0  0  0
    3.3250   -0.0000    0.0000 C   0  0  0  0  0  0  0  0  0  0  0  0
  1  2  2  0  0  0  0 
  1  3  1  0  0  0  0 
  2  4  1  0  0  0  0 
  2  5  1  0  0  0  0 
  6  3  2  0  0  0  0 
  4  7  2  0  0  0  0 
  7  6  1  0  0  0  0 
M  END
> <Name>
Pyridine, 2-chloro-

> <Source>
DSSTox2DMolFile

> <Tox>
2.160

> <CAS>
109-09-1

$$$$

  CDK

 10  9  0  0  0  0  0  0  0  0999 V2000
    1.0814    0.3824   -0.0014 C   0  0  0  0  0  0  0  0  0  0  0  0
    2.2422   -0.5851   -0.0024 C   0  0  0  0  0  0  0  0  0  0  0  0
    1.0990    1.5973   -0.0011 O   0  0  0  0  0  0  0  0  0  0  0  0
   -0.1221   -0.2648   -0.0011 O   0  0  0  0  0  0  0  0  0  0  0  0
    3.5898    0.1180    0.0038 C   0  0  0  0  0  0  0  0  0  0  0  0
   -1.3166    0.5177   -0.0008 C   0  0  0  0  0  0  0  0  0  0  0  0
    4.7224   -0.8841    0.0010 C   0  0  0  0  0  0  0  0  0  0  0  0
   -2.4781   -0.4721   -0.0015 C   0  0  0  0  0  0  0  0  0  0  0  0
   -3.8032    0.2733    0.0029 C   0  0  0  0  0  0  0  0  0  0  0  0
   -4.9732   -0.6843    0.0008 C   0  0  0  0  0  0  0  0  0  0  0  0
  1  2  1  0  0  0  0 
  1  3  2  0  0  0  0 
  1  4  1  0  0  0  0 
  2  5  1  0  0  0  0 
  4  6  1  0  0  0  0 
  5  7  1  0  0  0  0 
  6  8  1  0  0  0  0 
  8  9  1  0  0  0  0 
  9 10  1  0  0  0  0 
M  END
> <Name>
Butanoic acid, butyl ester

> <Source>
DougDB3DMolFile

> <Tox>
3.516

> <CAS>
109-21-7

$$$$

  CDK

 12 11  0  0  0  0  0  0  0  0999 V2000
   -0.8194   -0.8678   -0.4318 N   0  0  0  0  0  0  0  0  0  0  0  0
    0.3043   -1.4827    0.1244 C   0  0  0  0  0  0  0  0  0  0  0  0
   -1.6302    0.1615    0.2639 C   0  0  0  0  0  0  0  0  0  0  0  0
    0.7638   -2.9939   -0.3647 S   0  0  0  0  0  0  0  0  0  0  0  0
    1.0145   -0.7927    1.1543 N   0  0  0  0  0  0  0  0  0  0  0  0
   -2.9988    0.3180   -0.3886 C   0  0  0  0  0  0  0  0  0  0  0  0
    1.4458    0.6159    0.9898 C   0  0  0  0  0  0  0  0  0  0  0  0
   -3.7982    1.4087    0.3077 C   0  0  0  0  0  0  0  0  0  0  0  0
    2.6485    0.7865    0.0661 C   0  0  0  0  0  0  0  0  0  0  0  0
   -5.1620    1.5772   -0.3230 C   0  0  0  0  0  0  0  0  0  0  0  0
    3.0789    2.2436    0.0118 C   0  0  0  0  0  0  0  0  0  0  0  0
    4.2700    2.4314   -0.9004 C   0  0  0  0  0  0  0  0  0  0  0  0
  1  2  1  0  0  0  0 
  1  3  1  0  0  0  0 
  2  4  2  0  0  0  0 
  2  5  1  0  0  0  0 
  3  6  1  0  0  0  0 
  5  7  1  0  0  0  0 
  6  8  1  0  0  0  0 
  7  9  1  0  0  0  0 
  8 10  1  0  0  0  0 
  9 11  1  0  0  0  0 
 11 12  1  0  0  0  0 
M  END
> <Name>
Urea,1,3-dibutyl-2-thio- (8CI)

> <Source>
DougDB3DMolFile

> <Tox>
3.860

> <CAS>
109-46-6

$$$$

  CDK

  7  6  0  0  0  0  0  0  0  0999 V2000
    1.6853    0.9076    1.6941 C   0  0  0  0  0  0  0  0  0  0  0  0
    2.4647    0.8996    2.9968 C   0  0  0  0  0  0  0  0  0  0  0  0
    0.8148    2.1501    1.5662 C   0  0  0  0  0  0  0  0  0  0  0  0
    3.9367    1.1839    2.8832 C   0  0  0  0  0  0  0  0  0  0  0  0
    1.9294    0.6713    4.0650 O   0  0  0  0  0  0  0  0  0  0  0  0
    1.5439    3.3655    1.1046 C   0  0  0  0  0  0  0  0  0  0  0  0
    2.6372    3.3303    0.3513 C   0  0  0  0  0  0  0  0  0  0  0  0
  1  2  1  0  0  0  0 
  1  3  1  0  0  0  0 
  2  4  1  0  0  0  0 
  2  5  2  0  0  0  0 
  3  6  1  0  0  0  0 
  6  7  2  0  0  0  0 
M  END
> <Name>
5-Hexen-2-one

> <Source>
NIST3DMolFile

> <Tox>
1.860

> <CAS>
109-49-9

$$$$

  CDK

  7  6  0  0  0  0  0  0  0  0999 V2000
    1.0326    4.4381   -1.9809 O   0  0  0  0  0  0  0  0  0  0  0  0
    1.8508    4.4235   -0.8145 C   0  0  0  0  0  0  0  0  0  0  0  0
    1.2915    5.4427    0.1660 C   0  0  0  0  0  0  0  0  0  0  0  0
    1.8659    3.0778   -0.2281 C   0  0  0  0  0  0  0  0  0  0  0  0
    1.8800    1.9769    0.2520 C   0  0  0  0  0  0  0  0  0  0  0  0
    1.8976    0.6327    0.8414 C   0  0  0  0  0  0  0  0  0  0  0  0
    1.0429   -0.3326    0.0380 C   0  0  0  0  0  0  0  0  0  0  0  0
  1  2  1  0  0  0  0 
  2  3  1  0  0  0  0 
  2  4  1  0  0  0  0 
  4  5  3  0  0  0  0 
  6  5  1  0  0  0  0 
  6  7  1  0  0  0  0 
M  END
> <Name>
3-Hexyn-2-ol

> <Source>
Chemidplus3DMolFile

> <Tox>
3.511

> <CAS>
109-50-2

$$$$

  CDK

  7  6  0  0  0  0  0  0  0  0999 V2000
    5.7637   -1.9942    0.0000 O   0  0  0  0  0  0  0  0  0  0  0  0
    4.6110   -1.3314    0.0000 C   0  0  0  0  0  0  0  0  0  0  0  0
    3.4582   -1.9942    0.0000 C   0  0  0  0  0  0  0  0  0  0  0  0
    4.6110   -0.0000    0.0000 O   0  0  0  0  0  0  0  0  0  0  0  0
    2.3055   -1.3314    0.0000 C   0  0  0  0  0  0  0  0  0  0  0  0
    1.1527   -1.9942    0.0000 C   0  0  0  0  0  0  0  0  0  0  0  0
    0.0000   -1.3314    0.0000 C   0  0  0  0  0  0  0  0  0  0  0  0
  1  2  1  0  0  0  0 
  2  3  1  0  0  0  0 
  2  4  2  0  0  0  0 
  3  5  1  0  0  0  0 
  5  6  1  0  0  0  0 
  6  7  1  0  0  0  0 
M  END
> <Name>
Pentanoic acid

> <Source>
DSSTox2DMolFile

> <Tox>
2.733

> <CAS>
109-52-4

$$$$

  CDK

  7  6  0  0  0  0  0  0  0  0999 V2000
    5.7637   -1.9942    0.0000 C   0  0  0  0  0  0  0  0  0  0  0  0
    4.6110   -1.3314    0.0000 C   0  0  0  0  0  0  0  0  0  0  0  0
    4.6110   -0.0000    0.0000 O   0  0  0  0  0  0  0  0  0  0  0  0
    3.4582   -1.9942    0.0000 O   0  0  0  0  0  0  0  0  0  0  0  0
    2.3055   -1.3314    0.0000 C   0  0  0  0  0  0  0  0  0  0  0  0
    1.1527   -1.9942    0.0000 C   0  0  0  0  0  0  0  0  0  0  0  0
    0.0000   -1.3314    0.0000 C   0  0  0  0  0  0  0  0  0  0  0  0
  1  2  1  0  0  0  0 
  2  3  2  0  0  0  0 
  2  4  1  0  0  0  0 
  4  5  1  0  0  0  0 
  5  6  1  0  0  0  0 
  6  7  1  0  0  0  0 
M  END
> <Name>
Acetic acid, propyl ester

> <Source>
DSSTox2DMolFile

> <Tox>
1.762

> <CAS>
109-60-4

$$$$

  CDK

  5  4  0  0  0  0  0  0  0  0999 V2000
    0.0000   -0.6638    0.0000 C   0  0  0  0  0  0  0  0  0  0  0  0
    1.1525   -0.0000    0.0000 C   0  0  0  0  0  0  0  0  0  0  0  0
    2.3050   -0.6638    0.0000 C   0  0  0  0  0  0  0  0  0  0  0  0
    3.4575   -0.0000    0.0000 C   0  0  0  0  0  0  0  0  0  0  0  0
    4.6099   -0.6638    0.0000 Cl  0  0  0  0  0  0  0  0  0  0  0  0
  1  2  1  0  0  0  0 
  2  3  1  0  0  0  0 
  3  4  1  0  0  0  0 
  4  5  1  0  0  0  0 
M  END
> <Name>
Butane, 1-chloro-

> <Source>
DSSTox2DMolFile

> <Tox>
2.090

> <CAS>
109-69-3

$$$$

  CDK

  5  4  0  0  0  0  0  0  0  0999 V2000
    1.3333   -0.0000    0.0000 C   0  0  0  0  0  0  0  0  0  0  0  0
    2.6666   -0.0000    0.0000 C   0  0  0  0  0  0  0  0  0  0  0  0
    0.0000   -0.0000    0.0000 N   0  0  0  0  0  0  0  0  0  0  0  0
    3.3286   -1.1422    0.0000 C   0  0  0  0  0  0  0  0  0  0  0  0
    4.6619   -1.1422    0.0000 C   0  0  0  0  0  0  0  0  0  0  0  0
  1  2  1  0  0  0  0 
  1  3  3  0  0  0  0 
  2  4  1  0  0  0  0 
  4  5  1  0  0  0  0 
M  END
> <Name>
Butanenitrile

> <Source>
DSSTox2DMolFile

> <Tox>
1.559

> <CAS>
109-74-0

$$$$

  CDK

  5  4  0  0  0  0  0  0  0  0999 V2000
    4.6568   -0.0000    0.0000 C   0  0  0  0  0  0  0  0  0  0  0  0
    3.3250   -0.0000    0.0000 C   0  0  0  0  0  0  0  0  0  0  0  0
    2.6590   -1.1502    0.0000 C   0  0  0  0  0  0  0  0  0  0  0  0
    1.3319   -1.1502    0.0000 C   0  0  0  0  0  0  0  0  0  0  0  0
    0.0000   -1.1502    0.0000 N   0  0  0  0  0  0  0  0  0  0  0  0
  1  2  2  0  0  0  0 
  2  3  1  0  0  0  0 
  3  4  1  0  0  0  0 
  4  5  3  0  0  0  0 
M  END
> <Name>
3-Butenenitrile

> <Source>
DSSTox2DMolFile

> <Tox>
1.521

> <CAS>
109-75-1

$$$$

  CDK

  5  4  0  0  0  0  0  0  0  0999 V2000
    0.0000   -0.0000    0.0000 N   0  0  0  0  0  0  0  0  0  0  0  0
    1.1515   -0.6679    0.0000 C   0  0  0  0  0  0  0  0  0  0  0  0
    2.3030   -1.3311    0.0000 C   0  0  0  0  0  0  0  0  0  0  0  0
    3.4545   -0.6679    0.0000 C   0  0  0  0  0  0  0  0  0  0  0  0
    4.6060   -0.0000    0.0000 N   0  0  0  0  0  0  0  0  0  0  0  0
  1  2  3  0  0  0  0 
  2  3  1  0  0  0  0 
  3  4  1  0  0  0  0 
  4  5  3  0  0  0  0 
M  END
> <Name>
Malonic dinitrile

> <Source>
DSSTox2DMolFile

> <Tox>
3.220

> <CAS>
109-77-3

$$$$

  CDK

  5  4  0  0  0  0  0  0  0  0999 V2000
    2.3050   -0.6638    0.0000 C   0  0  0  0  0  0  0  0  0  0  0  0
    1.1525   -0.0000    0.0000 C   0  0  0  0  0  0  0  0  0  0  0  0
    3.4575   -0.0000    0.0000 N   0  0  0  0  0  0  0  0  0  0  0  0
    0.0000   -0.6638    0.0000 O   0  0  0  0  0  0  0  0  0  0  0  0
    4.6099   -0.6638    0.0000 C   0  0  0  0  0  0  0  0  0  0  0  0
  1  2  1  0  0  0  0 
  1  3  1  0  0  0  0 
  2  4  1  0  0  0  0 
  3  5  1  0  0  0  0 
M  END
> <Name>
Ethanol, 2-(methylamino)-

> <Source>
DSSTox2DMolFile

> <Tox>
1.180

> <CAS>
109-83-1

$$$$

  CDK

  5  4  0  0  0  0  0  0  0  0999 V2000
    0.0000   -0.6638    0.0000 C   0  0  0  0  0  0  0  0  0  0  0  0
    1.1525   -0.0000    0.0000 O   0  0  0  0  0  0  0  0  0  0  0  0
    2.3050   -0.6638    0.0000 C   0  0  0  0  0  0  0  0  0  0  0  0
    3.4575   -0.0000    0.0000 C   0  0  0  0  0  0  0  0  0  0  0  0
    4.6099   -0.6638    0.0000 N   0  0  0  0  0  0  0  0  0  0  0  0
  1  2  1  0  0  0  0 
  2  3  1  0  0  0  0 
  3  4  1  0  0  0  0 
  4  5  1  0  0  0  0 
M  END
> <Name>
Ethanamine, 2-methoxy-

> <Source>
DSSTox2DMolFile

> <Tox>
1.210

> <CAS>
109-85-3

$$$$

  CDK

  5  5  0  0  0  0  0  0  0  0999 V2000
    1.7409   -0.0000    0.0000 C   0  0  0  0  0  0  0  0  0  0  0  0
    2.1519   -1.2653    0.0000 C   0  0  0  0  0  0  0  0  0  0  0  0
    0.4110   -0.0000    0.0000 C   0  0  0  0  0  0  0  0  0  0  0  0
    1.0760   -2.0465    0.0000 O   0  0  0  0  0  0  0  0  0  0  0  0
    0.0000   -1.2653    0.0000 C   0  0  0  0  0  0  0  0  0  0  0  0
  1  2  2  0  0  0  0 
  1  3  1  0  0  0  0 
  2  4  1  0  0  0  0 
  5  3  2  0  0  0  0 
  4  5  1  0  0  0  0 
M  END
> <Name>
Furan

> <Source>
DSSTox2DMolFile

> <Tox>
1.350

> <CAS>
110-00-9

$$$$

  CDK

  5  5  0  0  0  0  0  0  0  0999 V2000
    1.7409   -0.0000    0.0000 C   0  0  0  0  0  0  0  0  0  0  0  0
    2.1519   -1.2653    0.0000 C   0  0  0  0  0  0  0  0  0  0  0  0
    0.4110   -0.0000    0.0000 C   0  0  0  0  0  0  0  0  0  0  0  0
    1.0760   -2.0465    0.0000 S   0  0  0  0  0  0  0  0  0  0  0  0
    0.0000   -1.2653    0.0000 C   0  0  0  0  0  0  0  0  0  0  0  0
  1  2  2  0  0  0  0 
  1  3  1  0  0  0  0 
  2  4  1  0  0  0  0 
  5  3  2  0  0  0  0 
  4  5  1  0  0  0  0 
M  END
> <Name>
Thiophene

> <Source>
DSSTox2DMolFile

> <Tox>
1.560

> <CAS>
110-02-1

$$$$

  CDK

  8  7  0  0  0  0  0  0  0  0999 V2000
    5.7628   -1.9939    0.0000 C   0  0  0  0  0  0  0  0  0  0  0  0
    4.6103   -1.3312    0.0000 C   0  0  0  0  0  0  0  0  0  0  0  0
    4.6103   -0.0000    0.0000 O   0  0  0  0  0  0  0  0  0  0  0  0
    3.4577   -1.9939    0.0000 C   0  0  0  0  0  0  0  0  0  0  0  0
    2.3051   -1.3312    0.0000 C   0  0  0  0  0  0  0  0  0  0  0  0
    1.1526   -1.9939    0.0000 C   0  0  0  0  0  0  0  0  0  0  0  0
    1.1526   -3.3252    0.0000 C   0  0  0  0  0  0  0  0  0  0  0  0
    0.0000   -1.3312    0.0000 C   0  0  0  0  0  0  0  0  0  0  0  0
  1  2  1  0  0  0  0 
  2  3  2  0  0  0  0 
  2  4  1  0  0  0  0 
  4  5  1  0  0  0  0 
  5  6  1  0  0  0  0 
  6  7  1  0  0  0  0 
  6  8  1  0  0  0  0 
M  END
> <Name>
2-Hexanone, 5-methyl-

> <Source>
DSSTox2DMolFile

> <Tox>
2.354

> <CAS>
110-12-3

$$$$

  CDK

  8  7  0  0  0  0  0  0  0  0999 V2000
    0.0000   -1.3292    0.0000 C   0  0  0  0  0  0  0  0  0  0  0  0
    1.1508   -1.9966    0.0000 C   0  0  0  0  0  0  0  0  0  0  0  0
    2.3016   -1.3292    0.0000 C   0  0  0  0  0  0  0  0  0  0  0  0
    1.1508   -3.3258    0.0000 O   0  0  0  0  0  0  0  0  0  0  0  0
    3.4524   -1.9966    0.0000 C   0  0  0  0  0  0  0  0  0  0  0  0
    4.6031   -1.3292    0.0000 C   0  0  0  0  0  0  0  0  0  0  0  0
    5.7539   -1.9966    0.0000 C   0  0  0  0  0  0  0  0  0  0  0  0
    4.6031   -0.0000    0.0000 O   0  0  0  0  0  0  0  0  0  0  0  0
  1  2  1  0  0  0  0 
  2  3  1  0  0  0  0 
  2  4  2  0  0  0  0 
  3  5  1  0  0  0  0 
  5  6  1  0  0  0  0 
  6  7  1  0  0  0  0 
  6  8  2  0  0  0  0 
M  END
> <Name>
2,5-Hexanedione

> <Source>
DSSTox2DMolFile

> <Tox>
1.597

> <CAS>
110-13-4

$$$$

  CDK

  8  7  0  0  0  0  0  0  0  0999 V2000
    4.6103   -1.3312    0.0000 C   0  0  0  0  0  0  0  0  0  0  0  0
    5.7628   -1.9939    0.0000 O   0  0  0  0  0  0  0  0  0  0  0  0
    4.6103   -0.0000    0.0000 O   0  0  0  0  0  0  0  0  0  0  0  0
    3.4577   -1.9939    0.0000 C   0  0  0  0  0  0  0  0  0  0  0  0
    2.3051   -1.3312    0.0000 C   0  0  0  0  0  0  0  0  0  0  0  0
    1.1526   -1.9939    0.0000 C   0  0  0  0  0  0  0  0  0  0  0  0
    0.0000   -1.3312    0.0000 O   0  0  0  0  0  0  0  0  0  0  0  0
    1.1526   -3.3252    0.0000 O   0  0  0  0  0  0  0  0  0  0  0  0
  1  2  1  0  0  0  0 
  1  3  2  0  0  0  0 
  1  4  1  0  0  0  0 
  4  5  1  0  0  0  0 
  5  6  1  0  0  0  0 
  6  7  1  0  0  0  0 
  6  8  2  0  0  0  0 
M  END
> <Name>
Butanedioic acid

> <Source>
DSSTox2DMolFile

> <Tox>
2.061

> <CAS>
110-15-6

$$$$

  CDK

 11 10  0  0  0  0  0  0  0  0999 V2000
    1.1538   -0.0000    0.0000 O   0  0  0  0  0  0  0  0  0  0  0  0
    1.1538   -1.3265    0.0000 C   0  0  0  0  0  0  0  0  0  0  0  0
    2.3007   -1.9967    0.0000 N   0  0  0  0  0  0  0  0  0  0  0  0
    0.0000   -1.9967    0.0000 C   0  0  0  0  0  0  0  0  0  0  0  0
    3.4545   -1.3265    0.0000 C   0  0  0  0  0  0  0  0  0  0  0  0
    0.0000   -3.3232    0.0000 C   0  0  0  0  0  0  0  0  0  0  0  0
    4.6083   -1.9967    0.0000 N   0  0  0  0  0  0  0  0  0  0  0  0
    5.7552   -1.3265    0.0000 C   0  0  0  0  0  0  0  0  0  0  0  0
    5.7552   -0.0000    0.0000 O   0  0  0  0  0  0  0  0  0  0  0  0
    6.9090   -1.9967    0.0000 C   0  0  0  0  0  0  0  0  0  0  0  0
    6.9090   -3.3232    0.0000 C   0  0  0  0  0  0  0  0  0  0  0  0
  1  2  2  0  0  0  0 
  2  3  1  0  0  0  0 
  2  4  1  0  0  0  0 
  3  5  1  0  0  0  0 
  4  6  2  0  0  0  0 
  5  7  1  0  0  0  0 
  7  8  1  0  0  0  0 
  8  9  2  0  0  0  0 
  8 10  1  0  0  0  0 
 10 11  2  0  0  0  0 
M  END
> <Name>
2-Propenamide, N,N'-methylenebis-

> <Source>
DSSTox2DMolFile

> <Tox>
2.485

> <CAS>
110-26-9

$$$$

  CDK

 18 17  0  0  0  0  0  0  0  0999 V2000
   16.0803   -3.3125    0.0000 C   0  0  0  0  0  0  0  0  0  0  0  0
   16.0803   -1.9940    0.0000 C   0  0  0  0  0  0  0  0  0  0  0  0
   14.9386   -1.3186    0.0000 O   0  0  0  0  0  0  0  0  0  0  0  0
   13.7808   -1.9940    0.0000 C   0  0  0  0  0  0  0  0  0  0  0  0
   13.7808   -3.3125    0.0000 O   0  0  0  0  0  0  0  0  0  0  0  0
   12.6391   -1.3186    0.0000 C   0  0  0  0  0  0  0  0  0  0  0  0
   11.4813   -1.9940    0.0000 C   0  0  0  0  0  0  0  0  0  0  0  0
   10.3396   -1.3186    0.0000 C   0  0  0  0  0  0  0  0  0  0  0  0
    9.1819   -1.9940    0.0000 C   0  0  0  0  0  0  0  0  0  0  0  0
    8.0402   -1.3186    0.0000 C   0  0  0  0  0  0  0  0  0  0  0  0
    6.8985   -1.9940    0.0000 C   0  0  0  0  0  0  0  0  0  0  0  0
    5.7407   -1.3186    0.0000 C   0  0  0  0  0  0  0  0  0  0  0  0
    4.5990   -1.9940    0.0000 C   0  0  0  0  0  0  0  0  0  0  0  0
    3.4412   -1.3186    0.0000 C   0  0  0  0  0  0  0  0  0  0  0  0
    3.4412   -0.0000    0.0000 O   0  0  0  0  0  0  0  0  0  0  0  0
    2.2995   -1.9940    0.0000 O   0  0  0  0  0  0  0  0  0  0  0  0
    1.1417   -1.3186    0.0000 C   0  0  0  0  0  0  0  0  0  0  0  0
    0.0000   -1.9940    0.0000 C   0  0  0  0  0  0  0  0  0  0  0  0
  1  2  1  0  0  0  0 
  2  3  1  0  0  0  0 
  3  4  1  0  0  0  0 
  4  5  2  0  0  0  0 
  4  6  1  0  0  0  0 
  6  7  1  0  0  0  0 
  7  8  1  0  0  0  0 
  8  9  1  0  0  0  0 
  9 10  1  0  0  0  0 
 10 11  1  0  0  0  0 
 11 12  1  0  0  0  0 
 12 13  1  0  0  0  0 
 13 14  1  0  0  0  0 
 14 15  2  0  0  0  0 
 14 16  1  0  0  0  0 
 16 17  1  0  0  0  0 
 17 18  1  0  0  0  0 
M  END
> <Name>
Decanedioic acid, diethyl ester

> <Source>
DSSTox2DMolFile

> <Tox>
4.354

> <CAS>
110-40-7

$$$$

  CDK

 13 12  0  0  0  0  0  0  0  0999 V2000
    2.2735   -1.3389    0.0000 C   0  0  0  0  0  0  0  0  0  0  0  0
    3.4482   -2.0083    0.0000 C   0  0  0  0  0  0  0  0  0  0  0  0
    1.1494   -2.0083    0.0000 O   0  0  0  0  0  0  0  0  0  0  0  0
    2.2735   -0.0000    0.0000 O   0  0  0  0  0  0  0  0  0  0  0  0
    4.5976   -1.3389    0.0000 C   0  0  0  0  0  0  0  0  0  0  0  0
    0.0000   -1.3389    0.0000 C   0  0  0  0  0  0  0  0  0  0  0  0
    5.7218   -2.0083    0.0000 C   0  0  0  0  0  0  0  0  0  0  0  0
    6.9091   -1.3389    0.0000 C   0  0  0  0  0  0  0  0  0  0  0  0
    8.0332   -2.0083    0.0000 C   0  0  0  0  0  0  0  0  0  0  0  0
    9.1826   -1.3389    0.0000 C   0  0  0  0  0  0  0  0  0  0  0  0
   10.3068   -2.0083    0.0000 C   0  0  0  0  0  0  0  0  0  0  0  0
   11.4814   -1.3389    0.0000 C   0  0  0  0  0  0  0  0  0  0  0  0
   12.6308   -2.0083    0.0000 C   0  0  0  0  0  0  0  0  0  0  0  0
  1  2  1  0  0  0  0 
  1  3  1  0  0  0  0 
  1  4  2  0  0  0  0 
  2  5  1  0  0  0  0 
  3  6  1  0  0  0  0 
  5  7  1  0  0  0  0 
  7  8  1  0  0  0  0 
  8  9  1  0  0  0  0 
  9 10  1  0  0  0  0 
 10 11  1  0  0  0  0 
 11 12  1  0  0  0  0 
 12 13  1  0  0  0  0 
M  END
> <Name>
Decanoic acid, methyl ester

> <Source>
DSSTox2DMolFile

> <Tox>
4.378

> <CAS>
110-42-9

$$$$

  CDK

  6  5  0  0  0  0  0  0  0  0999 V2000
    0.0000    0.0000    0.0000 C   0  0  0  0  0  0  0  0  0  0  0  0
    0.8677    0.4594    0.0000 C   0  0  0  0  0  0  0  0  0  0  0  0
    1.7355    0.0000    0.0000 C   0  0  0  0  0  0  0  0  0  0  0  0
    2.6543    0.4594    0.0000 C   0  0  0  0  0  0  0  0  0  0  0  0
    3.5220    0.0000    0.0000 C   0  0  0  0  0  0  0  0  0  0  0  0
    4.4408    0.4594    0.0000 Br  0  0  0  0  0  0  0  0  0  0  0  0
  1  2  1  0  0  0  0 
  2  3  1  0  0  0  0 
  3  4  1  0  0  0  0 
  4  5  1  0  0  0  0 
  5  6  1  0  0  0  0 
M  END
> <Name>
Pentane, 1-bromo-

> <Source>
NIST2DMolFile

> <Tox>
3.484

> <CAS>
110-53-2

$$$$

  CDK

  6  5  0  0  0  0  0  0  0  0999 V2000
    0.0000   -0.6630    0.0000 C   0  0  0  0  0  0  0  0  0  0  0  0
    1.1530   -0.0000    0.0000 C   0  0  0  0  0  0  0  0  0  0  0  0
    2.3060   -0.6630    0.0000 C   0  0  0  0  0  0  0  0  0  0  0  0
    3.4590   -0.0000    0.0000 C   0  0  0  0  0  0  0  0  0  0  0  0
    4.6119   -0.6630    0.0000 C   0  0  0  0  0  0  0  0  0  0  0  0
    5.7649   -0.0000    0.0000 C   0  0  0  0  0  0  0  0  0  0  0  0
  1  2  1  0  0  0  0 
  2  3  1  0  0  0  0 
  3  4  1  0  0  0  0 
  4  5  1  0  0  0  0 
  5  6  1  0  0  0  0 
M  END
> <Name>
n-Hexane

> <Source>
DSSTox2DMolFile

> <Tox>
3.720

> <CAS>
110-54-3

$$$$

  CDK

  6  5  0  0  0  0  0  0  0  0999 V2000
    0.0000   -0.6630    0.0000 Cl  0  0  0  0  0  0  0  0  0  0  0  0
    1.1530   -0.0000    0.0000 C   0  0  0  0  0  0  0  0  0  0  0  0
    2.3060   -0.6630    0.0000 C   0  0  0  0  0  0  0  0  0  0  0  0
    3.4590   -0.0000    0.0000 C   0  0  0  0  0  0  0  0  0  0  0  0
    4.6119   -0.6630    0.0000 C   0  0  0  0  0  0  0  0  0  0  0  0
    5.7649   -0.0000    0.0000 Cl  0  0  0  0  0  0  0  0  0  0  0  0
  1  2  1  0  0  0  0 
  2  3  1  0  0  0  0 
  3  4  2  0  0  0  0 
  4  5  1  0  0  0  0 
  5  6  1  0  0  0  0 
M  END
> <Name>
2-Butene, 1,4-dichloro-, (2E)-

> <Source>
DSSTox2DMolFile

> <Tox>
3.770

> <CAS>
110-57-6

$$$$

  CDK

  6  5  0  0  0  0  0  0  0  0999 V2000
    0.0000   -0.6630    0.0000 C   0  0  0  0  0  0  0  0  0  0  0  0
    1.1530   -0.0000    0.0000 C   0  0  0  0  0  0  0  0  0  0  0  0
    2.3060   -0.6630    0.0000 C   0  0  0  0  0  0  0  0  0  0  0  0
    3.4590   -0.0000    0.0000 C   0  0  0  0  0  0  0  0  0  0  0  0
    4.6119   -0.6630    0.0000 C   0  0  0  0  0  0  0  0  0  0  0  0
    5.7649   -0.0000    0.0000 N   0  0  0  0  0  0  0  0  0  0  0  0
  1  2  1  0  0  0  0 
  2  3  1  0  0  0  0 
  3  4  1  0  0  0  0 
  4  5  1  0  0  0  0 
  5  6  1  0  0  0  0 
M  END
> <Name>
1-Pentanamine

> <Source>
DSSTox2DMolFile

> <Tox>
2.515

> <CAS>
110-58-7

$$$$

  CDK

  6  5  0  0  0  0  0  0  0  0999 V2000
    5.7624   -0.0000    0.0000 N   0  0  0  0  0  0  0  0  0  0  0  0
    4.6099   -0.6684    0.0000 C   0  0  0  0  0  0  0  0  0  0  0  0
    3.4575   -1.3311    0.0000 C   0  0  0  0  0  0  0  0  0  0  0  0
    2.3050   -0.6684    0.0000 C   0  0  0  0  0  0  0  0  0  0  0  0
    1.1525   -1.3311    0.0000 C   0  0  0  0  0  0  0  0  0  0  0  0
    0.0000   -0.6684    0.0000 C   0  0  0  0  0  0  0  0  0  0  0  0
  1  2  3  0  0  0  0 
  2  3  1  0  0  0  0 
  3  4  1  0  0  0  0 
  4  5  1  0  0  0  0 
  5  6  1  0  0  0  0 
M  END
> <Name>
Pentanenitrile

> <Source>
DSSTox2DMolFile

> <Tox>
1.993

> <CAS>
110-59-8

$$$$

  CDK

  6  5  0  0  0  0  0  0  0  0999 V2000
    0.0000   -1.1500    0.0000 N   0  0  0  0  0  0  0  0  0  0  0  0
    1.3297   -1.1500    0.0000 C   0  0  0  0  0  0  0  0  0  0  0  0
    2.6593   -1.1500    0.0000 C   0  0  0  0  0  0  0  0  0  0  0  0
    3.3302   -0.0000    0.0000 C   0  0  0  0  0  0  0  0  0  0  0  0
    4.6598   -0.0000    0.0000 C   0  0  0  0  0  0  0  0  0  0  0  0
    5.9895   -0.0000    0.0000 N   0  0  0  0  0  0  0  0  0  0  0  0
  1  2  3  0  0  0  0 
  2  3  1  0  0  0  0 
  3  4  1  0  0  0  0 
  4  5  1  0  0  0  0 
  5  6  3  0  0  0  0 
M  END
> <Name>
Butanedinitrile

> <Source>
DSSTox2DMolFile

> <Tox>
1.176

> <CAS>
110-61-2

$$$$

  CDK

  6  5  0  0  0  0  0  0  0  0999 V2000
    0.0000   -0.6630    0.0000 C   0  0  0  0  0  0  0  0  0  0  0  0
    1.1530   -0.0000    0.0000 C   0  0  0  0  0  0  0  0  0  0  0  0
    2.3060   -0.6630    0.0000 C   0  0  0  0  0  0  0  0  0  0  0  0
    3.4590   -0.0000    0.0000 C   0  0  0  0  0  0  0  0  0  0  0  0
    4.6119   -0.6630    0.0000 C   0  0  0  0  0  0  0  0  0  0  0  0
    5.7649   -0.0000    0.0000 O   0  0  0  0  0  0  0  0  0  0  0  0
  1  2  1  0  0  0  0 
  2  3  1  0  0  0  0 
  3  4  1  0  0  0  0 
  4  5  1  0  0  0  0 
  5  6  2  0  0  0  0 
M  END
> <Name>
Valeraldehyde

> <Source>
DSSTox2DMolFile

> <Tox>
2.978

> <CAS>
110-62-3

$$$$

  CDK

  6  5  0  0  0  0  0  0  0  0999 V2000
    2.3060   -0.6630    0.0000 C   0  0  0  0  0  0  0  0  0  0  0  0
    1.1530   -0.0000    0.0000 C   0  0  0  0  0  0  0  0  0  0  0  0
    3.4590   -0.0000    0.0000 C   0  0  0  0  0  0  0  0  0  0  0  0
    0.0000   -0.6630    0.0000 O   0  0  0  0  0  0  0  0  0  0  0  0
    4.6119   -0.6630    0.0000 C   0  0  0  0  0  0  0  0  0  0  0  0
    5.7649   -0.0000    0.0000 O   0  0  0  0  0  0  0  0  0  0  0  0
  1  2  1  0  0  0  0 
  1  3  1  0  0  0  0 
  2  4  1  0  0  0  0 
  3  5  1  0  0  0  0 
  5  6  1  0  0  0  0 
M  END
> <Name>
1,4-Butanediol

> <Source>
DSSTox2DMolFile

> <Tox>
0.764

> <CAS>
110-63-4

$$$$

  CDK

  6  5  0  0  0  0  0  0  0  0999 V2000
    0.6655   -1.1499    0.0000 C   0  0  0  0  0  0  0  0  0  0  0  0
    0.0000   -0.0000    0.0000 O   0  0  0  0  0  0  0  0  0  0  0  0
    1.9964   -1.1499    0.0000 C   0  0  0  0  0  0  0  0  0  0  0  0
    3.3273   -1.1499    0.0000 C   0  0  0  0  0  0  0  0  0  0  0  0
    4.6583   -1.1499    0.0000 C   0  0  0  0  0  0  0  0  0  0  0  0
    5.3237   -0.0000    0.0000 O   0  0  0  0  0  0  0  0  0  0  0  0
  1  2  1  0  0  0  0 
  1  3  1  0  0  0  0 
  3  4  3  0  0  0  0 
  4  5  1  0  0  0  0 
  5  6  1  0  0  0  0 
M  END
> <Name>
2-Butyne-1,4-diol

> <Source>
DSSTox2DMolFile

> <Tox>
1.116

> <CAS>
110-65-6

$$$$

  CDK

  6  5  0  0  0  0  0  0  0  0999 V2000
    1.8133    0.5158   -0.0830 N   0  0  0  0  0  0  0  0  0  0  0  0
    0.6427   -0.3948    0.0016 C   0  0  0  0  0  0  0  0  0  0  0  0
    3.1004   -0.1912    0.0259 C   0  0  0  0  0  0  0  0  0  0  0  0
   -0.6613    0.3937   -0.0055 C   0  0  0  0  0  0  0  0  0  0  0  0
   -1.8583   -0.5443    0.0056 C   0  0  0  0  0  0  0  0  0  0  0  0
   -3.1612    0.2230    0.0047 C   0  0  0  0  0  0  0  0  0  0  0  0
  1  2  1  0  0  0  0 
  1  3  1  0  0  0  0 
  2  4  1  0  0  0  0 
  4  5  1  0  0  0  0 
  5  6  1  0  0  0  0 
M  END
> <Name>
1-Butanamine, N-methyl-

> <Source>
DougDB3DMolFile

> <Tox>
2.322

> <CAS>
110-68-9

$$$$

  CDK

  6  5  0  0  0  0  0  0  0  0999 V2000
   -1.9549    0.3562    0.0002 C   0  0  0  0  0  0  0  0  0  0  0  0
   -2.2539   -0.8153    0.0017 O   0  0  0  0  0  0  0  0  0  0  0  0
   -0.6604    0.7451   -0.0016 O   0  0  0  0  0  0  0  0  0  0  0  0
    0.3690   -0.2480   -0.0030 C   0  0  0  0  0  0  0  0  0  0  0  0
    1.6990    0.4998    0.0032 C   0  0  0  0  0  0  0  0  0  0  0  0
    2.8512   -0.4791   -0.0002 C   0  0  0  0  0  0  0  0  0  0  0  0
  1  2  2  0  0  0  0 
  1  3  1  0  0  0  0 
  3  4  1  0  0  0  0 
  4  5  1  0  0  0  0 
  5  6  1  0  0  0  0 
M  END
> <Name>
Formic acid, propyl ester

> <Source>
DougDB3DMolFile

> <Tox>
1.978

> <CAS>
110-74-7

$$$$

  CDK

  6  6  0  0  0  0  0  0  0  0999 V2000
    2.3036   -1.9950    0.0000 N   0  0  0  0  0  0  0  0  0  0  0  0
    1.1518   -2.6600    0.0000 C   0  0  0  0  0  0  0  0  0  0  0  0
    2.3036   -0.6650    0.0000 C   0  0  0  0  0  0  0  0  0  0  0  0
    0.0000   -1.9950    0.0000 C   0  0  0  0  0  0  0  0  0  0  0  0
    1.1518   -0.0000    0.0000 C   0  0  0  0  0  0  0  0  0  0  0  0
    0.0000   -0.6650    0.0000 C   0  0  0  0  0  0  0  0  0  0  0  0
  1  2  2  0  0  0  0 
  1  3  1  0  0  0  0 
  2  4  1  0  0  0  0 
  5  3  2  0  0  0  0 
  4  6  2  0  0  0  0 
  6  5  1  0  0  0  0 
M  END
> <Name>
Pyridine

> <Source>
DSSTox2DMolFile

> <Tox>
1.680

> <CAS>
110-86-1

$$$$

  CDK

  9  8  0  0  0  0  0  0  0  0999 V2000
    0.0000   -1.1546    0.0000 C   0  0  0  0  0  0  0  0  0  0  0  0
    1.3281   -1.1546    0.0000 C   0  0  0  0  0  0  0  0  0  0  0  0
    1.9922   -2.3033    0.0000 C   0  0  0  0  0  0  0  0  0  0  0  0
    1.9922   -0.0000    0.0000 C   0  0  0  0  0  0  0  0  0  0  0  0
    3.3263   -0.0000    0.0000 C   0  0  0  0  0  0  0  0  0  0  0  0
    3.9904   -1.1546    0.0000 C   0  0  0  0  0  0  0  0  0  0  0  0
    5.3186   -1.1546    0.0000 C   0  0  0  0  0  0  0  0  0  0  0  0
    5.9826   -0.0000    0.0000 C   0  0  0  0  0  0  0  0  0  0  0  0
    5.9826   -2.3033    0.0000 O   0  0  0  0  0  0  0  0  0  0  0  0
  1  2  1  0  0  0  0 
  2  3  1  0  0  0  0 
  2  4  2  0  0  0  0 
  4  5  1  0  0  0  0 
  5  6  1  0  0  0  0 
  6  7  1  0  0  0  0 
  7  8  1  0  0  0  0 
  7  9  2  0  0  0  0 
M  END
> <Name>
5-Hepten-2-one, 6-methyl-

> <Source>
DSSTox2DMolFile

> <Tox>
2.548

> <CAS>
110-93-0

$$$$

  CDK

  9  8  0  0  0  0  0  0  0  0999 V2000
    6.9090   -1.9967    0.0000 O   0  0  0  0  0  0  0  0  0  0  0  0
    5.7552   -1.3334    0.0000 C   0  0  0  0  0  0  0  0  0  0  0  0
    4.6083   -1.9967    0.0000 C   0  0  0  0  0  0  0  0  0  0  0  0
    5.7552   -0.0000    0.0000 O   0  0  0  0  0  0  0  0  0  0  0  0
    3.4545   -1.3334    0.0000 C   0  0  0  0  0  0  0  0  0  0  0  0
    2.3007   -1.9967    0.0000 C   0  0  0  0  0  0  0  0  0  0  0  0
    1.1538   -1.3334    0.0000 C   0  0  0  0  0  0  0  0  0  0  0  0
    0.0000   -1.9967    0.0000 O   0  0  0  0  0  0  0  0  0  0  0  0
    1.1538   -0.0000    0.0000 O   0  0  0  0  0  0  0  0  0  0  0  0
  1  2  1  0  0  0  0 
  2  3  1  0  0  0  0 
  2  4  2  0  0  0  0 
  3  5  1  0  0  0  0 
  5  6  1  0  0  0  0 
  6  7  1  0  0  0  0 
  7  8  1  0  0  0  0 
  7  9  2  0  0  0  0 
M  END
> <Name>
Pentanedioic acid

> <Source>
DSSTox2DMolFile

> <Tox>
2.361

> <CAS>
110-94-1

$$$$

  CDK

 11 10  0  0  0  0  0  0  0  0999 V2000
    2.2867   -1.3512    0.0000 C   0  0  0  0  0  0  0  0  0  0  0  0
    3.4612   -2.0061    0.0000 C   0  0  0  0  0  0  0  0  0  0  0  0
    1.1433   -2.0061    0.0000 O   0  0  0  0  0  0  0  0  0  0  0  0
    2.2867   -0.0000    0.0000 O   0  0  0  0  0  0  0  0  0  0  0  0
    4.6046   -1.3512    0.0000 C   0  0  0  0  0  0  0  0  0  0  0  0
    0.0000   -1.3512    0.0000 C   0  0  0  0  0  0  0  0  0  0  0  0
    5.7583   -2.0061    0.0000 C   0  0  0  0  0  0  0  0  0  0  0  0
    6.9328   -1.3512    0.0000 C   0  0  0  0  0  0  0  0  0  0  0  0
    8.0762   -2.0061    0.0000 C   0  0  0  0  0  0  0  0  0  0  0  0
    9.2195   -1.3512    0.0000 C   0  0  0  0  0  0  0  0  0  0  0  0
   10.3941   -2.0061    0.0000 C   0  0  0  0  0  0  0  0  0  0  0  0
  1  2  1  0  0  0  0 
  1  3  1  0  0  0  0 
  1  4  2  0  0  0  0 
  2  5  1  0  0  0  0 
  3  6  1  0  0  0  0 
  5  7  1  0  0  0  0 
  7  8  1  0  0  0  0 
  8  9  1  0  0  0  0 
  9 10  1  0  0  0  0 
 10 11  1  0  0  0  0 
M  END
> <Name>
Octanoic acid, methyl ester

> <Source>
DSSTox2DMolFile

> <Tox>
3.536

> <CAS>
111-11-5

$$$$

  CDK

 11 10  0  0  0  0  0  0  0  0999 V2000
    4.1207    1.7174    1.2484 C   0  0  0  0  0  0  0  0  0  0  0  0
    5.2159    2.1894    1.2690 C   0  0  0  0  0  0  0  0  0  0  0  0
    2.8145    1.1228    1.2316 C   0  0  0  0  0  0  0  0  0  0  0  0
    6.5392    2.7537    1.2929 C   0  0  0  0  0  0  0  0  0  0  0  0
    1.8587    1.9816    0.7529 O   0  0  0  0  0  0  0  0  0  0  0  0
    2.5083    0.0000    1.5802 O   0  0  0  0  0  0  0  0  0  0  0  0
    6.4957    4.2756    1.3789 C   0  0  0  0  0  0  0  0  0  0  0  0
    0.5254    1.5241    0.6828 C   0  0  0  0  0  0  0  0  0  0  0  0
    7.9005    4.8553    1.4077 C   0  0  0  0  0  0  0  0  0  0  0  0
    7.8694    6.3733    1.4879 C   0  0  0  0  0  0  0  0  0  0  0  0
    9.2649    6.9552    1.4885 C   0  0  0  0  0  0  0  0  0  0  0  0
  1  2  3  0  0  0  0 
  1  3  1  0  0  0  0 
  2  4  1  0  0  0  0 
  3  5  1  0  0  0  0 
  3  6  2  0  0  0  0 
  4  7  1  0  0  0  0 
  5  8  1  0  0  0  0 
  7  9  1  0  0  0  0 
  9 10  1  0  0  0  0 
 10 11  1  0  0  0  0 
M  END
> <Name>
2-Octynoic acid, methyl ester

> <Source>
NIST3DMolFile

> <Tox>
4.040

> <CAS>
111-12-6

$$$$

  CDK

  9  8  0  0  0  0  0  0  0  0999 V2000
    1.9962   -2.3033    0.0000 C   0  0  0  0  0  0  0  0  0  0  0  0
    1.3308   -1.1553    0.0000 C   0  0  0  0  0  0  0  0  0  0  0  0
    0.0000   -1.1553    0.0000 O   0  0  0  0  0  0  0  0  0  0  0  0
    1.9962   -0.0000    0.0000 C   0  0  0  0  0  0  0  0  0  0  0  0
    3.3271   -0.0000    0.0000 C   0  0  0  0  0  0  0  0  0  0  0  0
    3.9852   -1.1553    0.0000 C   0  0  0  0  0  0  0  0  0  0  0  0
    5.3160   -1.1553    0.0000 C   0  0  0  0  0  0  0  0  0  0  0  0
    5.9814   -2.3033    0.0000 C   0  0  0  0  0  0  0  0  0  0  0  0
    7.3122   -2.3033    0.0000 C   0  0  0  0  0  0  0  0  0  0  0  0
  1  2  1  0  0  0  0 
  2  3  2  0  0  0  0 
  2  4  1  0  0  0  0 
  4  5  1  0  0  0  0 
  5  6  1  0  0  0  0 
  6  7  1  0  0  0  0 
  7  8  1  0  0  0  0 
  8  9  1  0  0  0  0 
M  END
> <Name>
2-Octanone

> <Source>
DSSTox2DMolFile

> <Tox>
2.855

> <CAS>
111-13-7

$$$$

  CDK

  9  8  0  0  0  0  0  0  0  0999 V2000
    1.9962   -2.3033    0.0000 O   0  0  0  0  0  0  0  0  0  0  0  0
    1.3308   -1.1553    0.0000 C   0  0  0  0  0  0  0  0  0  0  0  0
    0.0000   -1.1553    0.0000 O   0  0  0  0  0  0  0  0  0  0  0  0
    1.9962   -0.0000    0.0000 C   0  0  0  0  0  0  0  0  0  0  0  0
    3.3271   -0.0000    0.0000 C   0  0  0  0  0  0  0  0  0  0  0  0
    3.9852   -1.1553    0.0000 C   0  0  0  0  0  0  0  0  0  0  0  0
    5.3160   -1.1553    0.0000 C   0  0  0  0  0  0  0  0  0  0  0  0
    5.9814   -2.3033    0.0000 C   0  0  0  0  0  0  0  0  0  0  0  0
    7.3122   -2.3033    0.0000 C   0  0  0  0  0  0  0  0  0  0  0  0
  1  2  2  0  0  0  0 
  2  3  1  0  0  0  0 
  2  4  1  0  0  0  0 
  4  5  1  0  0  0  0 
  5  6  1  0  0  0  0 
  6  7  1  0  0  0  0 
  7  8  1  0  0  0  0 
  8  9  1  0  0  0  0 
M  END
> <Name>
N-Heptanoic acid

> <Source>
DSSTox2DMolFile

> <Tox>
2.887

> <CAS>
111-14-8

$$$$

  CDK

 11 10  0  0  0  0  0  0  0  0999 V2000
    7.9743   -2.3046    0.0000 O   0  0  0  0  0  0  0  0  0  0  0  0
    6.6426   -2.3046    0.0000 C   0  0  0  0  0  0  0  0  0  0  0  0
    5.9808   -3.4529    0.0000 C   0  0  0  0  0  0  0  0  0  0  0  0
    5.9808   -1.1483    0.0000 O   0  0  0  0  0  0  0  0  0  0  0  0
    4.6490   -3.4529    0.0000 C   0  0  0  0  0  0  0  0  0  0  0  0
    3.9872   -2.3046    0.0000 C   0  0  0  0  0  0  0  0  0  0  0  0
    2.6555   -2.3046    0.0000 C   0  0  0  0  0  0  0  0  0  0  0  0
    1.9936   -1.1483    0.0000 C   0  0  0  0  0  0  0  0  0  0  0  0
    0.6619   -1.1483    0.0000 C   0  0  0  0  0  0  0  0  0  0  0  0
    0.0000   -2.3046    0.0000 O   0  0  0  0  0  0  0  0  0  0  0  0
    0.0000   -0.0000    0.0000 O   0  0  0  0  0  0  0  0  0  0  0  0
  1  2  1  0  0  0  0 
  2  3  1  0  0  0  0 
  2  4  2  0  0  0  0 
  3  5  1  0  0  0  0 
  5  6  1  0  0  0  0 
  6  7  1  0  0  0  0 
  7  8  1  0  0  0  0 
  8  9  1  0  0  0  0 
  9 10  1  0  0  0  0 
  9 11  2  0  0  0  0 
M  END
> <Name>
Heptanedioic acid

> <Source>
DSSTox2DMolFile

> <Tox>
2.416

> <CAS>
111-16-0

$$$$

  CDK

  7  6  0  0  0  0  0  0  0  0999 V2000
    0.0000   -0.6638    0.0000 Br  0  0  0  0  0  0  0  0  0  0  0  0
    1.1548   -0.0000    0.0000 C   0  0  0  0  0  0  0  0  0  0  0  0
    2.3027   -0.6638    0.0000 C   0  0  0  0  0  0  0  0  0  0  0  0
    3.4575   -0.0000    0.0000 C   0  0  0  0  0  0  0  0  0  0  0  0
    4.6122   -0.6638    0.0000 C   0  0  0  0  0  0  0  0  0  0  0  0
    5.7601   -0.0000    0.0000 C   0  0  0  0  0  0  0  0  0  0  0  0
    6.9149   -0.6638    0.0000 C   0  0  0  0  0  0  0  0  0  0  0  0
  1  2  1  0  0  0  0 
  2  3  1  0  0  0  0 
  3  4  1  0  0  0  0 
  4  5  1  0  0  0  0 
  5  6  1  0  0  0  0 
  6  7  1  0  0  0  0 
M  END
> <Name>
Hexane, 1-bromo-

> <Source>
DSSTox2DMolFile

> <Tox>
3.937

> <CAS>
111-25-1

$$$$

  CDK

  7  6  0  0  0  0  0  0  0  0999 V2000
    0.0000   -0.6638    0.0000 C   0  0  0  0  0  0  0  0  0  0  0  0
    1.1548   -0.0000    0.0000 C   0  0  0  0  0  0  0  0  0  0  0  0
    2.3027   -0.6638    0.0000 C   0  0  0  0  0  0  0  0  0  0  0  0
    3.4575   -0.0000    0.0000 C   0  0  0  0  0  0  0  0  0  0  0  0
    4.6122   -0.6638    0.0000 C   0  0  0  0  0  0  0  0  0  0  0  0
    5.7601   -0.0000    0.0000 C   0  0  0  0  0  0  0  0  0  0  0  0
    6.9149   -0.6638    0.0000 N   0  0  0  0  0  0  0  0  0  0  0  0
  1  2  1  0  0  0  0 
  2  3  1  0  0  0  0 
  3  4  1  0  0  0  0 
  4  5  1  0  0  0  0 
  5  6  1  0  0  0  0 
  6  7  1  0  0  0  0 
M  END
> <Name>
1-Hexanamine

> <Source>
DSSTox2DMolFile

> <Tox>
2.780

> <CAS>
111-26-2

$$$$

  CDK

  7  6  0  0  0  0  0  0  0  0999 V2000
    0.0000   -0.6638    0.0000 C   0  0  0  0  0  0  0  0  0  0  0  0
    1.1548   -0.0000    0.0000 C   0  0  0  0  0  0  0  0  0  0  0  0
    2.3027   -0.6638    0.0000 C   0  0  0  0  0  0  0  0  0  0  0  0
    3.4575   -0.0000    0.0000 C   0  0  0  0  0  0  0  0  0  0  0  0
    4.6122   -0.6638    0.0000 C   0  0  0  0  0  0  0  0  0  0  0  0
    5.7601   -0.0000    0.0000 C   0  0  0  0  0  0  0  0  0  0  0  0
    6.9149   -0.6638    0.0000 O   0  0  0  0  0  0  0  0  0  0  0  0
  1  2  1  0  0  0  0 
  2  3  1  0  0  0  0 
  3  4  1  0  0  0  0 
  4  5  1  0  0  0  0 
  5  6  1  0  0  0  0 
  6  7  1  0  0  0  0 
M  END
> <Name>
Hexyl alcohol

> <Source>
DSSTox2DMolFile

> <Tox>
2.621

> <CAS>
111-27-3

$$$$

  CDK

  7  6  0  0  0  0  0  0  0  0999 V2000
   -2.5042    0.4947    0.0006 C   0  0  0  0  0  0  0  0  0  0  0  0
   -1.2534   -0.3813   -0.0026 C   0  0  0  0  0  0  0  0  0  0  0  0
   -3.6233   -0.3618    0.0018 O   0  0  0  0  0  0  0  0  0  0  0  0
    0.0000    0.4781   -0.0007 C   0  0  0  0  0  0  0  0  0  0  0  0
    1.2534   -0.3813   -0.0015 C   0  0  0  0  0  0  0  0  0  0  0  0
    2.5042    0.4947   -0.0005 C   0  0  0  0  0  0  0  0  0  0  0  0
    3.6233   -0.3618    0.0022 O   0  0  0  0  0  0  0  0  0  0  0  0
  1  2  1  0  0  0  0 
  1  3  1  0  0  0  0 
  2  4  1  0  0  0  0 
  4  5  1  0  0  0  0 
  5  6  1  0  0  0  0 
  6  7  1  0  0  0  0 
M  END
> <Name>
1,5-Pentanediol

> <Source>
DougDB3DMolFile

> <Tox>
1.066

> <CAS>
111-29-5

$$$$

  CDK

  7  6  0  0  0  0  0  0  0  0999 V2000
    0.0000   -0.6638    0.0000 O   0  0  0  0  0  0  0  0  0  0  0  0
    1.1548   -0.0000    0.0000 C   0  0  0  0  0  0  0  0  0  0  0  0
    2.3027   -0.6638    0.0000 C   0  0  0  0  0  0  0  0  0  0  0  0
    3.4575   -0.0000    0.0000 N   0  0  0  0  0  0  0  0  0  0  0  0
    4.6122   -0.6638    0.0000 C   0  0  0  0  0  0  0  0  0  0  0  0
    5.7601   -0.0000    0.0000 C   0  0  0  0  0  0  0  0  0  0  0  0
    6.9149   -0.6638    0.0000 O   0  0  0  0  0  0  0  0  0  0  0  0
  1  2  1  0  0  0  0 
  2  3  1  0  0  0  0 
  3  4  1  0  0  0  0 
  4  5  1  0  0  0  0 
  5  6  1  0  0  0  0 
  6  7  1  0  0  0  0 
M  END
> <Name>
Ethanol, 2,2'-iminobis-

> <Source>
DSSTox2DMolFile

> <Tox>
1.206

> <CAS>
111-42-2

$$$$

  CDK

  8  7  0  0  0  0  0  0  0  0999 V2000
    8.0744   -0.0000    0.0000 C   0  0  0  0  0  0  0  0  0  0  0  0
    6.9197   -0.6621    0.0000 C   0  0  0  0  0  0  0  0  0  0  0  0
    5.7651   -0.0000    0.0000 C   0  0  0  0  0  0  0  0  0  0  0  0
    4.6105   -0.6621    0.0000 C   0  0  0  0  0  0  0  0  0  0  0  0
    3.4639   -0.0000    0.0000 C   0  0  0  0  0  0  0  0  0  0  0  0
    2.3093   -0.6621    0.0000 C   0  0  0  0  0  0  0  0  0  0  0  0
    1.1546   -0.0000    0.0000 C   0  0  0  0  0  0  0  0  0  0  0  0
    0.0000   -0.6621    0.0000 N   0  0  0  0  0  0  0  0  0  0  0  0
  1  2  1  0  0  0  0 
  2  3  1  0  0  0  0 
  3  4  1  0  0  0  0 
  4  5  1  0  0  0  0 
  5  6  1  0  0  0  0 
  6  7  1  0  0  0  0 
  7  8  1  0  0  0  0 
M  END
> <Name>
1-Heptanamine

> <Source>
DSSTox2DMolFile

> <Tox>
3.211

> <CAS>
111-68-2

$$$$

  CDK

  8  7  0  0  0  0  0  0  0  0999 V2000
    0.0000   -1.9901    0.0000 N   0  0  0  0  0  0  0  0  0  0  0  0
    1.1521   -1.3294    0.0000 C   0  0  0  0  0  0  0  0  0  0  0  0
    2.3043   -0.6607    0.0000 C   0  0  0  0  0  0  0  0  0  0  0  0
    3.4564   -1.3294    0.0000 C   0  0  0  0  0  0  0  0  0  0  0  0
    4.6005   -0.6607    0.0000 C   0  0  0  0  0  0  0  0  0  0  0  0
    5.7526   -1.3294    0.0000 C   0  0  0  0  0  0  0  0  0  0  0  0
    6.9048   -0.6607    0.0000 C   0  0  0  0  0  0  0  0  0  0  0  0
    8.0569   -0.0000    0.0000 N   0  0  0  0  0  0  0  0  0  0  0  0
  1  2  3  0  0  0  0 
  2  3  1  0  0  0  0 
  3  4  1  0  0  0  0 
  4  5  1  0  0  0  0 
  5  6  1  0  0  0  0 
  6  7  1  0  0  0  0 
  7  8  3  0  0  0  0 
M  END
> <Name>
Hexanedinitrile

> <Source>
DSSTox2DMolFile

> <Tox>
1.462

> <CAS>
111-69-3

$$$$

  CDK

  8  7  0  0  0  0  0  0  0  0999 V2000
    8.0744   -0.0000    0.0000 C   0  0  0  0  0  0  0  0  0  0  0  0
    6.9197   -0.6621    0.0000 C   0  0  0  0  0  0  0  0  0  0  0  0
    5.7651   -0.0000    0.0000 C   0  0  0  0  0  0  0  0  0  0  0  0
    4.6105   -0.6621    0.0000 C   0  0  0  0  0  0  0  0  0  0  0  0
    3.4639   -0.0000    0.0000 C   0  0  0  0  0  0  0  0  0  0  0  0
    2.3093   -0.6621    0.0000 C   0  0  0  0  0  0  0  0  0  0  0  0
    1.1546   -0.0000    0.0000 C   0  0  0  0  0  0  0  0  0  0  0  0
    0.0000   -0.6621    0.0000 O   0  0  0  0  0  0  0  0  0  0  0  0
  1  2  1  0  0  0  0 
  2  3  1  0  0  0  0 
  3  4  1  0  0  0  0 
  4  5  1  0  0  0  0 
  5  6  1  0  0  0  0 
  6  7  1  0  0  0  0 
  7  8  1  0  0  0  0 
M  END
> <Name>
Heptyl alcohol

> <Source>
DSSTox2DMolFile

> <Tox>
3.105

> <CAS>
111-70-6

$$$$

  CDK

  8  7  0  0  0  0  0  0  0  0999 V2000
    8.0744   -0.0000    0.0000 C   0  0  0  0  0  0  0  0  0  0  0  0
    6.9197   -0.6621    0.0000 C   0  0  0  0  0  0  0  0  0  0  0  0
    5.7651   -0.0000    0.0000 C   0  0  0  0  0  0  0  0  0  0  0  0
    4.6105   -0.6621    0.0000 C   0  0  0  0  0  0  0  0  0  0  0  0
    3.4639   -0.0000    0.0000 C   0  0  0  0  0  0  0  0  0  0  0  0
    2.3093   -0.6621    0.0000 C   0  0  0  0  0  0  0  0  0  0  0  0
    1.1546   -0.0000    0.0000 C   0  0  0  0  0  0  0  0  0  0  0  0
    0.0000   -0.6621    0.0000 O   0  0  0  0  0  0  0  0  0  0  0  0
  1  2  1  0  0  0  0 
  2  3  1  0  0  0  0 
  3  4  1  0  0  0  0 
  4  5  1  0  0  0  0 
  5  6  1  0  0  0  0 
  6  7  1  0  0  0  0 
  7  8  2  0  0  0  0 
M  END
> <Name>
N-Heptanal

> <Source>
DSSTox2DMolFile

> <Tox>
2.998

> <CAS>
111-71-7

$$$$

  CDK

 12 11  0  0  0  0  0  0  0  0999 V2000
    6.5583    2.0959    1.0054 C   0  0  0  0  0  0  0  0  0  0  0  0
    5.1513    2.1786    1.2948 C   0  0  0  0  0  0  0  0  0  0  0  0
    7.3887    2.8163    2.0617 C   0  0  0  0  0  0  0  0  0  0  0  0
    3.9844    2.2442    1.5319 C   0  0  0  0  0  0  0  0  0  0  0  0
    8.8720    2.7104    1.7460 C   0  0  0  0  0  0  0  0  0  0  0  0
    2.5820    2.3447    1.8210 C   0  0  0  0  0  0  0  0  0  0  0  0
    9.7099    3.4173    2.7989 C   0  0  0  0  0  0  0  0  0  0  0  0
    1.9652    1.1202    1.8206 O   0  0  0  0  0  0  0  0  0  0  0  0
    1.9428    3.3519    2.0507 O   0  0  0  0  0  0  0  0  0  0  0  0
   11.1922    3.3385    2.4707 C   0  0  0  0  0  0  0  0  0  0  0  0
    0.5805    1.0707    2.0900 C   0  0  0  0  0  0  0  0  0  0  0  0
   12.0291    4.0315    3.5221 C   0  0  0  0  0  0  0  0  0  0  0  0
  1  2  1  0  0  0  0 
  1  3  1  0  0  0  0 
  2  4  3  0  0  0  0 
  3  5  1  0  0  0  0 
  4  6  1  0  0  0  0 
  5  7  1  0  0  0  0 
  6  8  1  0  0  0  0 
  6  9  2  0  0  0  0 
  7 10  1  0  0  0  0 
  8 11  1  0  0  0  0 
 10 12  1  0  0  0  0 
M  END
> <Name>
2-Nonynoic acid, methyl ester

> <Source>
NIST3DMolFile

> <Tox>
4.320

> <CAS>
111-80-8

$$$$

  CDK

  9  8  0  0  0  0  0  0  0  0999 V2000
    0.0000   -0.6638    0.0000 Br  0  0  0  0  0  0  0  0  0  0  0  0
    1.1525   -0.0000    0.0000 C   0  0  0  0  0  0  0  0  0  0  0  0
    2.3050   -0.6638    0.0000 C   0  0  0  0  0  0  0  0  0  0  0  0
    3.4575   -0.0000    0.0000 C   0  0  0  0  0  0  0  0  0  0  0  0
    4.6099   -0.6638    0.0000 C   0  0  0  0  0  0  0  0  0  0  0  0
    5.7624   -0.0000    0.0000 C   0  0  0  0  0  0  0  0  0  0  0  0
    6.9149   -0.6638    0.0000 C   0  0  0  0  0  0  0  0  0  0  0  0
    8.0674   -0.0000    0.0000 C   0  0  0  0  0  0  0  0  0  0  0  0
    9.2199   -0.6638    0.0000 C   0  0  0  0  0  0  0  0  0  0  0  0
  1  2  1  0  0  0  0 
  2  3  1  0  0  0  0 
  3  4  1  0  0  0  0 
  4  5  1  0  0  0  0 
  5  6  1  0  0  0  0 
  6  7  1  0  0  0  0 
  7  8  1  0  0  0  0 
  8  9  1  0  0  0  0 
M  END
> <Name>
Octane, 1-bromo-

> <Source>
DSSTox2DMolFile

> <Tox>
4.870

> <CAS>
111-83-1

$$$$

  CDK

  9  8  0  0  0  0  0  0  0  0999 V2000
    0.0000   -0.6638    0.0000 C   0  0  0  0  0  0  0  0  0  0  0  0
    1.1525   -0.0000    0.0000 C   0  0  0  0  0  0  0  0  0  0  0  0
    2.3050   -0.6638    0.0000 C   0  0  0  0  0  0  0  0  0  0  0  0
    3.4575   -0.0000    0.0000 C   0  0  0  0  0  0  0  0  0  0  0  0
    4.6099   -0.6638    0.0000 C   0  0  0  0  0  0  0  0  0  0  0  0
    5.7624   -0.0000    0.0000 C   0  0  0  0  0  0  0  0  0  0  0  0
    6.9149   -0.6638    0.0000 C   0  0  0  0  0  0  0  0  0  0  0  0
    8.0674   -0.0000    0.0000 C   0  0  0  0  0  0  0  0  0  0  0  0
    9.2199   -0.6638    0.0000 Cl  0  0  0  0  0  0  0  0  0  0  0  0
  1  2  1  0  0  0  0 
  2  3  1  0  0  0  0 
  3  4  1  0  0  0  0 
  4  5  1  0  0  0  0 
  5  6  1  0  0  0  0 
  6  7  1  0  0  0  0 
  7  8  1  0  0  0  0 
  8  9  1  0  0  0  0 
M  END
> <Name>
1-chlorooctane

> <Source>
DSSTox2DMolFile

> <Tox>
3.670

> <CAS>
111-85-3

$$$$

  CDK

  9  8  0  0  0  0  0  0  0  0999 V2000
    0.0000   -0.6638    0.0000 C   0  0  0  0  0  0  0  0  0  0  0  0
    1.1525   -0.0000    0.0000 C   0  0  0  0  0  0  0  0  0  0  0  0
    2.3050   -0.6638    0.0000 C   0  0  0  0  0  0  0  0  0  0  0  0
    3.4575   -0.0000    0.0000 C   0  0  0  0  0  0  0  0  0  0  0  0
    4.6099   -0.6638    0.0000 C   0  0  0  0  0  0  0  0  0  0  0  0
    5.7624   -0.0000    0.0000 C   0  0  0  0  0  0  0  0  0  0  0  0
    6.9149   -0.6638    0.0000 C   0  0  0  0  0  0  0  0  0  0  0  0
    8.0674   -0.0000    0.0000 C   0  0  0  0  0  0  0  0  0  0  0  0
    9.2199   -0.6638    0.0000 N   0  0  0  0  0  0  0  0  0  0  0  0
  1  2  1  0  0  0  0 
  2  3  1  0  0  0  0 
  3  4  1  0  0  0  0 
  4  5  1  0  0  0  0 
  5  6  1  0  0  0  0 
  6  7  1  0  0  0  0 
  7  8  1  0  0  0  0 
  8  9  1  0  0  0  0 
M  END
> <Name>
1-Octanamine

> <Source>
DSSTox2DMolFile

> <Tox>
3.351

> <CAS>
111-86-4

$$$$

  CDK

  9  8  0  0  0  0  0  0  0  0999 V2000
    0.0000   -0.6638    0.0000 C   0  0  0  0  0  0  0  0  0  0  0  0
    1.1525   -0.0000    0.0000 C   0  0  0  0  0  0  0  0  0  0  0  0
    2.3050   -0.6638    0.0000 C   0  0  0  0  0  0  0  0  0  0  0  0
    3.4575   -0.0000    0.0000 C   0  0  0  0  0  0  0  0  0  0  0  0
    4.6099   -0.6638    0.0000 C   0  0  0  0  0  0  0  0  0  0  0  0
    5.7624   -0.0000    0.0000 C   0  0  0  0  0  0  0  0  0  0  0  0
    6.9149   -0.6638    0.0000 C   0  0  0  0  0  0  0  0  0  0  0  0
    8.0674   -0.0000    0.0000 C   0  0  0  0  0  0  0  0  0  0  0  0
    9.2199   -0.6638    0.0000 O   0  0  0  0  0  0  0  0  0  0  0  0
  1  2  1  0  0  0  0 
  2  3  1  0  0  0  0 
  3  4  1  0  0  0  0 
  4  5  1  0  0  0  0 
  5  6  1  0  0  0  0 
  6  7  1  0  0  0  0 
  7  8  1  0  0  0  0 
  8  9  1  0  0  0  0 
M  END
> <Name>
Octyl alcohol

> <Source>
DSSTox2DMolFile

> <Tox>
3.583

> <CAS>
111-87-5

$$$$

  CDK

 11 10  0  0  0  0  0  0  0  0999 V2000
    0.0000   -2.6632    0.0000 C   0  0  0  0  0  0  0  0  0  0  0  0
    1.1519   -1.9997    0.0000 C   0  0  0  0  0  0  0  0  0  0  0  0
    2.3038   -2.6632    0.0000 C   0  0  0  0  0  0  0  0  0  0  0  0
    3.4557   -1.9997    0.0000 C   0  0  0  0  0  0  0  0  0  0  0  0
    4.6076   -2.6632    0.0000 C   0  0  0  0  0  0  0  0  0  0  0  0
    5.7595   -1.9997    0.0000 C   0  0  0  0  0  0  0  0  0  0  0  0
    6.9113   -2.6632    0.0000 C   0  0  0  0  0  0  0  0  0  0  0  0
    8.0632   -1.9997    0.0000 C   0  0  0  0  0  0  0  0  0  0  0  0
    8.0632   -0.6635    0.0000 C   0  0  0  0  0  0  0  0  0  0  0  0
    6.9113   -0.0000    0.0000 O   0  0  0  0  0  0  0  0  0  0  0  0
    9.2151   -0.0000    0.0000 O   0  0  0  0  0  0  0  0  0  0  0  0
  1  2  1  0  0  0  0 
  2  3  1  0  0  0  0 
  3  4  1  0  0  0  0 
  4  5  1  0  0  0  0 
  5  6  1  0  0  0  0 
  6  7  1  0  0  0  0 
  7  8  1  0  0  0  0 
  8  9  1  0  0  0  0 
  9 10  1  0  0  0  0 
  9 11  2  0  0  0  0 
M  END
> <Name>
Nonanoic acid

> <Source>
DSSTox2DMolFile

> <Tox>
3.351

> <CAS>
112-05-0

$$$$

  CDK

 12 11  0  0  0  0  0  0  0  0999 V2000
    0.0000   -1.9913    0.0000 C   0  0  0  0  0  0  0  0  0  0  0  0
    1.1510   -1.3237    0.0000 C   0  0  0  0  0  0  0  0  0  0  0  0
    2.3021   -1.9913    0.0000 C   0  0  0  0  0  0  0  0  0  0  0  0
    3.4531   -1.3237    0.0000 C   0  0  0  0  0  0  0  0  0  0  0  0
    4.6041   -1.9913    0.0000 C   0  0  0  0  0  0  0  0  0  0  0  0
    5.7552   -1.3237    0.0000 C   0  0  0  0  0  0  0  0  0  0  0  0
    6.9062   -1.9913    0.0000 C   0  0  0  0  0  0  0  0  0  0  0  0
    8.0573   -1.3237    0.0000 C   0  0  0  0  0  0  0  0  0  0  0  0
    9.2083   -1.9913    0.0000 C   0  0  0  0  0  0  0  0  0  0  0  0
   10.3593   -1.3237    0.0000 C   0  0  0  0  0  0  0  0  0  0  0  0
   10.3593   -0.0000    0.0000 O   0  0  0  0  0  0  0  0  0  0  0  0
   11.5104   -1.9913    0.0000 C   0  0  0  0  0  0  0  0  0  0  0  0
  1  2  1  0  0  0  0 
  2  3  1  0  0  0  0 
  3  4  1  0  0  0  0 
  4  5  1  0  0  0  0 
  5  6  1  0  0  0  0 
  6  7  1  0  0  0  0 
  7  8  1  0  0  0  0 
  8  9  1  0  0  0  0 
  9 10  1  0  0  0  0 
 10 11  2  0  0  0  0 
 10 12  1  0  0  0  0 
M  END
> <Name>
2-Undecanone

> <Source>
DSSTox2DMolFile

> <Tox>
4.535

> <CAS>
112-12-9

$$$$

  CDK

 12 11  0  0  0  0  0  0  0  0999 V2000
   -4.4771    0.0472   -0.0016 C   0  0  0  0  0  0  0  0  0  0  0  0
   -5.5456   -1.0089   -0.0032 C   0  0  0  0  0  0  0  0  0  0  0  0
   -4.6244    1.2537    0.0012 O   0  0  0  0  0  0  0  0  0  0  0  0
   -3.2174   -0.4776   -0.0021 O   0  0  0  0  0  0  0  0  0  0  0  0
   -2.1066    0.4203    0.0023 C   0  0  0  0  0  0  0  0  0  0  0  0
   -0.8521   -0.4489    0.0022 C   0  0  0  0  0  0  0  0  0  0  0  0
    0.3906    0.4265    0.0015 C   0  0  0  0  0  0  0  0  0  0  0  0
    1.6560   -0.4159    0.0035 C   0  0  0  0  0  0  0  0  0  0  0  0
    2.9001    0.4575   -0.0012 C   0  0  0  0  0  0  0  0  0  0  0  0
    4.1658   -0.3842    0.0028 C   0  0  0  0  0  0  0  0  0  0  0  0
    5.4114    0.4875   -0.0059 C   0  0  0  0  0  0  0  0  0  0  0  0
    6.6717   -0.3478   -0.0001 C   0  0  0  0  0  0  0  0  0  0  0  0
  1  2  1  0  0  0  0 
  1  3  2  0  0  0  0 
  1  4  1  0  0  0  0 
  4  5  1  0  0  0  0 
  5  6  1  0  0  0  0 
  6  7  1  0  0  0  0 
  7  8  1  0  0  0  0 
  8  9  1  0  0  0  0 
  9 10  1  0  0  0  0 
 10 11  1  0  0  0  0 
 11 12  1  0  0  0  0 
M  END
> <Name>
Acetic acid, octyl ester

> <Source>
DougDB3DMolFile

> <Tox>
4.057

> <CAS>
112-14-1

$$$$

  CDK

 14 13  0  0  0  0  0  0  0  0999 V2000
    5.5573    1.7420    1.7619 C   0  0  0  0  0  0  0  0  0  0  0  0
    6.8482    1.2879    1.1001 C   0  0  0  0  0  0  0  0  0  0  0  0
    4.3572    1.1045    1.0681 C   0  0  0  0  0  0  0  0  0  0  0  0
    8.0590    1.9222    1.7645 C   0  0  0  0  0  0  0  0  0  0  0  0
    3.1972    1.5868    1.7479 O   0  0  0  0  0  0  0  0  0  0  0  0
    9.3522    1.4611    1.1116 C   0  0  0  0  0  0  0  0  0  0  0  0
    1.9737    1.1330    1.3516 C   0  0  0  0  0  0  0  0  0  0  0  0
   10.5612    2.1202    1.7552 C   0  0  0  0  0  0  0  0  0  0  0  0
    0.8452    1.7062    2.1606 C   0  0  0  0  0  0  0  0  0  0  0  0
    1.8984    0.3429    0.4306 O   0  0  0  0  0  0  0  0  0  0  0  0
   11.8554    1.6476    1.1132 C   0  0  0  0  0  0  0  0  0  0  0  0
   13.0627    2.3274    1.7382 C   0  0  0  0  0  0  0  0  0  0  0  0
   14.3596    1.8440    1.1094 C   0  0  0  0  0  0  0  0  0  0  0  0
   15.5601    2.5273    1.7248 C   0  0  0  0  0  0  0  0  0  0  0  0
  1  2  1  0  0  0  0 
  1  3  1  0  0  0  0 
  2  4  1  0  0  0  0 
  3  5  1  0  0  0  0 
  4  6  1  0  0  0  0 
  5  7  1  0  0  0  0 
  6  8  1  0  0  0  0 
  7  9  1  0  0  0  0 
  7 10  2  0  0  0  0 
  8 11  1  0  0  0  0 
 11 12  1  0  0  0  0 
 12 13  1  0  0  0  0 
 13 14  1  0  0  0  0 
M  END
> <Name>
Acetic acid, decyl ester

> <Source>
NIST3DMolFile

> <Tox>
4.880

> <CAS>
112-17-4

$$$$

  CDK

 10  9  0  0  0  0  0  0  0  0999 V2000
    0.0000   -0.6638    0.0000 C   0  0  0  0  0  0  0  0  0  0  0  0
    1.1513   -0.0000    0.0000 C   0  0  0  0  0  0  0  0  0  0  0  0
    2.3027   -0.6638    0.0000 C   0  0  0  0  0  0  0  0  0  0  0  0
    3.4540   -0.0000    0.0000 C   0  0  0  0  0  0  0  0  0  0  0  0
    4.6053   -0.6638    0.0000 C   0  0  0  0  0  0  0  0  0  0  0  0
    5.7670   -0.0000    0.0000 C   0  0  0  0  0  0  0  0  0  0  0  0
    6.9184   -0.6638    0.0000 C   0  0  0  0  0  0  0  0  0  0  0  0
    8.0697   -0.0000    0.0000 C   0  0  0  0  0  0  0  0  0  0  0  0
    9.2210   -0.6638    0.0000 C   0  0  0  0  0  0  0  0  0  0  0  0
   10.3724   -0.0000    0.0000 N   0  0  0  0  0  0  0  0  0  0  0  0
  1  2  1  0  0  0  0 
  2  3  1  0  0  0  0 
  3  4  1  0  0  0  0 
  4  5  1  0  0  0  0 
  5  6  1  0  0  0  0 
  6  7  1  0  0  0  0 
  7  8  1  0  0  0  0 
  8  9  1  0  0  0  0 
  9 10  1  0  0  0  0 
M  END
> <Name>
1-Nonanamine

> <Source>
DSSTox2DMolFile

> <Tox>
4.701

> <CAS>
112-20-9

$$$$

  CDK

 11 10  0  0  0  0  0  0  0  0999 V2000
    0.0000   -0.6673    0.0000 C   0  0  0  0  0  0  0  0  0  0  0  0
    1.1505   -0.0000    0.0000 C   0  0  0  0  0  0  0  0  0  0  0  0
    2.3010   -0.6673    0.0000 C   0  0  0  0  0  0  0  0  0  0  0  0
    3.4515   -0.0000    0.0000 C   0  0  0  0  0  0  0  0  0  0  0  0
    4.6020   -0.6673    0.0000 C   0  0  0  0  0  0  0  0  0  0  0  0
    5.7525   -0.0000    0.0000 C   0  0  0  0  0  0  0  0  0  0  0  0
    6.9029   -0.6673    0.0000 C   0  0  0  0  0  0  0  0  0  0  0  0
    8.0534   -0.0000    0.0000 C   0  0  0  0  0  0  0  0  0  0  0  0
    9.2039   -0.6673    0.0000 C   0  0  0  0  0  0  0  0  0  0  0  0
   10.3544   -0.0000    0.0000 C   0  0  0  0  0  0  0  0  0  0  0  0
   11.5049   -0.6673    0.0000 O   0  0  0  0  0  0  0  0  0  0  0  0
  1  2  1  0  0  0  0 
  2  3  1  0  0  0  0 
  3  4  1  0  0  0  0 
  4  5  1  0  0  0  0 
  5  6  1  0  0  0  0 
  6  7  1  0  0  0  0 
  7  8  1  0  0  0  0 
  8  9  1  0  0  0  0 
  9 10  1  0  0  0  0 
 10 11  1  0  0  0  0 
M  END
> <Name>
Decyl alcohol

> <Source>
DSSTox2DMolFile

> <Tox>
4.335

> <CAS>
112-30-1

$$$$

  CDK

 12 11  0  0  0  0  0  0  0  0999 V2000
    1.1501   -0.0000    0.0000 C   0  0  0  0  0  0  0  0  0  0  0  0
    2.2876   -0.6699    0.0000 C   0  0  0  0  0  0  0  0  0  0  0  0
    0.0000   -0.6699    0.0000 O   0  0  0  0  0  0  0  0  0  0  0  0
    3.4378   -0.0000    0.0000 C   0  0  0  0  0  0  0  0  0  0  0  0
    4.5879   -0.6699    0.0000 C   0  0  0  0  0  0  0  0  0  0  0  0
    5.7381   -0.0000    0.0000 C   0  0  0  0  0  0  0  0  0  0  0  0
    6.9008   -0.6699    0.0000 C   0  0  0  0  0  0  0  0  0  0  0  0
    8.0510   -0.0000    0.0000 C   0  0  0  0  0  0  0  0  0  0  0  0
    9.2011   -0.6699    0.0000 C   0  0  0  0  0  0  0  0  0  0  0  0
   10.3512   -0.0000    0.0000 C   0  0  0  0  0  0  0  0  0  0  0  0
   11.4887   -0.6699    0.0000 C   0  0  0  0  0  0  0  0  0  0  0  0
   12.6389   -0.0000    0.0000 C   0  0  0  0  0  0  0  0  0  0  0  0
  1  2  1  0  0  0  0 
  1  3  1  0  0  0  0 
  2  4  1  0  0  0  0 
  4  5  1  0  0  0  0 
  5  6  1  0  0  0  0 
  6  7  1  0  0  0  0 
  7  8  1  0  0  0  0 
  8  9  1  0  0  0  0 
  9 10  1  0  0  0  0 
 10 11  1  0  0  0  0 
 11 12  1  0  0  0  0 
M  END
> <Name>
Undecyl alcohol

> <Source>
DSSTox2DMolFile

> <Tox>
4.955

> <CAS>
112-42-5

$$$$

  CDK

 12 11  0  0  0  0  0  0  0  0999 V2000
   12.6993   -0.0000    0.0000 C   0  0  0  0  0  0  0  0  0  0  0  0
   11.5436   -0.6604    0.0000 C   0  0  0  0  0  0  0  0  0  0  0  0
   10.3880   -0.0000    0.0000 C   0  0  0  0  0  0  0  0  0  0  0  0
    9.2324   -0.6604    0.0000 C   0  0  0  0  0  0  0  0  0  0  0  0
    8.0767   -0.0000    0.0000 C   0  0  0  0  0  0  0  0  0  0  0  0
    6.9211   -0.6604    0.0000 C   0  0  0  0  0  0  0  0  0  0  0  0
    5.7782   -0.0000    0.0000 C   0  0  0  0  0  0  0  0  0  0  0  0
    4.6225   -0.6604    0.0000 C   0  0  0  0  0  0  0  0  0  0  0  0
    3.4669   -0.0000    0.0000 C   0  0  0  0  0  0  0  0  0  0  0  0
    2.3113   -0.6604    0.0000 C   0  0  0  0  0  0  0  0  0  0  0  0
    1.1556   -0.0000    0.0000 C   0  0  0  0  0  0  0  0  0  0  0  0
    0.0000   -0.6604    0.0000 O   0  0  0  0  0  0  0  0  0  0  0  0
  1  2  1  0  0  0  0 
  2  3  1  0  0  0  0 
  3  4  1  0  0  0  0 
  4  5  1  0  0  0  0 
  5  6  1  0  0  0  0 
  6  7  1  0  0  0  0 
  7  8  1  0  0  0  0 
  8  9  1  0  0  0  0 
  9 10  1  0  0  0  0 
 10 11  1  0  0  0  0 
 11 12  2  0  0  0  0 
M  END
> <Name>
1-Undecanal

> <Source>
DSSTox2DMolFile

> <Tox>
4.690

> <CAS>
112-44-7

$$$$

  CDK

 12 11  0  0  0  0  0  0  0  0999 V2000
    0.6082    0.7604    1.2788 O   0  0  0  0  0  0  0  0  0  0  0  0
    1.2956    1.8237    1.8984 C   0  0  0  0  0  0  0  0  0  0  0  0
    1.0844    3.0713    1.0434 C   0  0  0  0  0  0  0  0  0  0  0  0
    1.8146    4.2833    1.6046 C   0  0  0  0  0  0  0  0  0  0  0  0
    3.2965    4.3264    1.2606 C   0  0  0  0  0  0  0  0  0  0  0  0
    4.1583    3.5016    2.2052 C   0  0  0  0  0  0  0  0  0  0  0  0
    5.6402    3.6999    1.9262 C   0  0  0  0  0  0  0  0  0  0  0  0
    6.0783    5.1234    2.2355 C   0  0  0  0  0  0  0  0  0  0  0  0
    7.5042    5.3841    1.7837 C   0  0  0  0  0  0  0  0  0  0  0  0
    7.9411    6.7948    2.1403 C   0  0  0  0  0  0  0  0  0  0  0  0
    9.3798    7.0404    1.6931 C   0  0  0  0  0  0  0  0  0  0  0  0
    9.7387    8.3410    2.0997 O   0  0  0  0  0  0  0  0  0  0  0  0
  1  2  1  0  0  0  0 
  2  3  1  0  0  0  0 
  3  4  1  0  0  0  0 
  4  5  1  0  0  0  0 
  5  6  1  0  0  0  0 
  6  7  1  0  0  0  0 
  7  8  1  0  0  0  0 
  8  9  1  0  0  0  0 
 10  9  1  0  0  0  0 
 11 10  1  0  0  0  0 
 12 11  1  0  0  0  0 
M  END
> <Name>
1,10-Decanediol

> <Source>
NIST3DMolFile

> <Tox>
3.224

> <CAS>
112-47-0

$$$$

  CDK

  6  5  0  0  0  0  0  0  0  0999 V2000
    1.7927    1.9551    1.5038 C   0  0  0  0  0  0  0  0  0  0  0  0
    3.2777    2.1297    1.7225 C   0  0  0  0  0  0  0  0  0  0  0  0
    1.0673    1.0266    2.1153 C   0  0  0  0  0  0  0  0  0  0  0  0
    3.7493    3.4549    1.1058 C   0  0  0  0  0  0  0  0  0  0  0  0
    4.0378    0.9619    1.0774 C   0  0  0  0  0  0  0  0  0  0  0  0
    3.4780    2.1450    3.1333 O   0  0  0  0  0  0  0  0  0  0  0  0
  1  2  1  0  0  0  0 
  1  3  2  0  0  0  0 
  2  4  1  0  0  0  0 
  2  5  1  0  0  0  0 
  2  6  1  0  0  0  0 
M  END
> <Name>
3-Butyn-2-ol, 2-methyl- (8CI,9CI)

> <Source>
NIST3DMolFile

> <Tox>
1.611

> <CAS>
115-18-4

$$$$

  CDK

  6  5  0  0  0  0  0  0  0  0999 V2000
    0.0000   -2.6608    0.0000 C   0  0  0  0  0  0  0  0  0  0  0  0
    1.3284   -2.6608    0.0000 C   0  0  0  0  0  0  0  0  0  0  0  0
    2.6608   -2.6608    0.0000 O   0  0  0  0  0  0  0  0  0  0  0  0
    1.3284   -3.9892    0.0000 C   0  0  0  0  0  0  0  0  0  0  0  0
    1.3284   -1.3284    0.0000 C   0  0  0  0  0  0  0  0  0  0  0  0
    1.3284   -0.0000    0.0000 C   0  0  0  0  0  0  0  0  0  0  0  0
  1  2  1  0  0  0  0 
  2  3  1  0  0  0  0 
  2  4  1  0  0  0  0 
  2  5  1  0  0  0  0 
  5  6  3  0  0  0  0 
M  END
> <Name>
3-Butyn-2-ol, 2-methyl-

> <Source>
DSSTox2DMolFile

> <Tox>
1.689

> <CAS>
115-19-5

$$$$

  CDK

  6  5  0  0  0  0  0  0  0  0999 V2000
    1.1503   -1.1537    0.0000 C   0  0  0  0  0  0  0  0  0  0  0  0
    0.4870   -0.0000    0.0000 Cl  0  0  0  0  0  0  0  0  0  0  0  0
    1.8169   -2.3040    0.0000 Cl  0  0  0  0  0  0  0  0  0  0  0  0
    0.0000   -1.8169    0.0000 Cl  0  0  0  0  0  0  0  0  0  0  0  0
    2.3040   -0.4870    0.0000 C   0  0  0  0  0  0  0  0  0  0  0  0
    3.4542   -1.1537    0.0000 O   0  0  0  0  0  0  0  0  0  0  0  0
  1  2  1  0  0  0  0 
  1  3  1  0  0  0  0 
  1  4  1  0  0  0  0 
  1  5  1  0  0  0  0 
  5  6  1  0  0  0  0 
M  END
> <Name>
Ethanol, 2,2,2-trichloro-

> <Source>
DSSTox2DMolFile

> <Tox>
2.535

> <CAS>
115-20-8

$$$$

  CDK

 23 25  0  0  0  0  0  0  0  0999 V2000
    1.9924   -6.9547    0.0000 C   0  0  0  0  0  0  0  0  0  0  0  0
    0.6610   -6.9547    0.0000 C   0  0  0  0  0  0  0  0  0  0  0  0
    2.6627   -5.8002    0.0000 C   0  0  0  0  0  0  0  0  0  0  0  0
    0.0000   -5.8002    0.0000 C   0  0  0  0  0  0  0  0  0  0  0  0
    1.9924   -4.6551    0.0000 C   0  0  0  0  0  0  0  0  0  0  0  0
    3.9940   -5.8002    0.0000 O   0  0  0  0  0  0  0  0  0  0  0  0
    0.6610   -4.6551    0.0000 C   0  0  0  0  0  0  0  0  0  0  0  0
    4.6551   -4.6551    0.0000 P   0  0  0  0  0  0  0  0  0  0  0  0
    5.8095   -5.3161    0.0000 O   0  0  0  0  0  0  0  0  0  0  0  0
    3.5006   -3.9847    0.0000 O   0  0  0  0  0  0  0  0  0  0  0  0
    5.3161   -3.5006    0.0000 O   0  0  0  0  0  0  0  0  0  0  0  0
    3.5006   -2.6534    0.0000 C   0  0  0  0  0  0  0  0  0  0  0  0
    6.6474   -3.5006    0.0000 C   0  0  0  0  0  0  0  0  0  0  0  0
    2.3555   -1.9924    0.0000 C   0  0  0  0  0  0  0  0  0  0  0  0
    4.6551   -1.9924    0.0000 C   0  0  0  0  0  0  0  0  0  0  0  0
    7.3178   -2.3462    0.0000 C   0  0  0  0  0  0  0  0  0  0  0  0
    7.3178   -4.6551    0.0000 C   0  0  0  0  0  0  0  0  0  0  0  0
    2.3555   -0.6610    0.0000 C   0  0  0  0  0  0  0  0  0  0  0  0
    4.6551   -0.6610    0.0000 C   0  0  0  0  0  0  0  0  0  0  0  0
    8.6491   -2.3462    0.0000 C   0  0  0  0  0  0  0  0  0  0  0  0
    8.6491   -4.6551    0.0000 C   0  0  0  0  0  0  0  0  0  0  0  0
    3.5006   -0.0000    0.0000 C   0  0  0  0  0  0  0  0  0  0  0  0
    9.3101   -3.5006    0.0000 C   0  0  0  0  0  0  0  0  0  0  0  0
  1  2  2  0  0  0  0 
  1  3  1  0  0  0  0 
  2  4  1  0  0  0  0 
  5  3  2  0  0  0  0 
  3  6  1  0  0  0  0 
  4  7  2  0  0  0  0 
  7  5  1  0  0  0  0 
  6  8  1  0  0  0  0 
  8  9  2  0  0  0  0 
  8 10  1  0  0  0  0 
  8 11  1  0  0  0  0 
 10 12  1  0  0  0  0 
 11 13  1  0  0  0  0 
 12 14  2  0  0  0  0 
 12 15  1  0  0  0  0 
 13 16  2  0  0  0  0 
 13 17  1  0  0  0  0 
 14 18  1  0  0  0  0 
 19 15  2  0  0  0  0 
 16 20  1  0  0  0  0 
 21 17  2  0  0  0  0 
 18 22  2  0  0  0  0 
 22 19  1  0  0  0  0 
 20 23  2  0  0  0  0 
 23 21  1  0  0  0  0 
M  END
> <Name>
Phosphoric acid, triphenyl ester

> <Source>
DSSTox2DMolFile

> <Tox>
4.810

> <CAS>
115-86-6

$$$$

  CDK

 13 13  0  0  0  0  0  0  0  0999 V2000
    0.6656   -2.3041    0.0000 N   0  0  0  0  0  0  0  0  0  0  0  0
    0.0000   -3.4585    0.0000 O   0  0  0  0  0  0  0  0  0  0  0  0
    0.0000   -1.1544    0.0000 O   0  0  0  0  0  0  0  0  0  0  0  0
    1.9969   -2.3041    0.0000 C   0  0  0  0  0  0  0  0  0  0  0  0
    2.6579   -1.1544    0.0000 C   0  0  0  0  0  0  0  0  0  0  0  0
    2.6579   -3.4585    0.0000 C   0  0  0  0  0  0  0  0  0  0  0  0
    1.9969   -0.0000    0.0000 Cl  0  0  0  0  0  0  0  0  0  0  0  0
    3.9892   -1.1544    0.0000 C   0  0  0  0  0  0  0  0  0  0  0  0
    3.9892   -3.4585    0.0000 C   0  0  0  0  0  0  0  0  0  0  0  0
    1.9969   -4.6083    0.0000 Cl  0  0  0  0  0  0  0  0  0  0  0  0
    4.6548   -0.0000    0.0000 Cl  0  0  0  0  0  0  0  0  0  0  0  0
    4.6548   -2.3041    0.0000 C   0  0  0  0  0  0  0  0  0  0  0  0
    4.6548   -4.6083    0.0000 Cl  0  0  0  0  0  0  0  0  0  0  0  0
  1  2  2  0  0  0  0 
  1  3  1  0  0  0  0 
  1  4  1  0  0  0  0 
  4  5  2  0  0  0  0 
  4  6  1  0  0  0  0 
  5  7  1  0  0  0  0 
  5  8  1  0  0  0  0 
  9  6  2  0  0  0  0 
  6 10  1  0  0  0  0 
  8 11  1  0  0  0  0 
  8 12  2  0  0  0  0 
 12  9  1  0  0  0  0 
  9 13  1  0  0  0  0 
M  CHG  1   1   1
M  CHG  1   3  -1
M  END
> <Name>
Benzene, 1,2,4,5-tetrachloro-3-nitro-

> <Source>
DSSTox2DMolFile

> <Tox>
4.820

> <CAS>
117-18-0

$$$$

  CDK

 14 15  0  0  0  0  0  0  0  0999 V2000
    0.0000   -3.9911    0.0000 O   0  0  0  0  0  0  0  0  0  0  0  0
    1.1489   -3.3269    0.0000 C   0  0  0  0  0  0  0  0  0  0  0  0
    2.3037   -3.9911    0.0000 C   0  0  0  0  0  0  0  0  0  0  0  0
    1.1489   -1.9925    0.0000 C   0  0  0  0  0  0  0  0  0  0  0  0
    3.4526   -3.3269    0.0000 C   0  0  0  0  0  0  0  0  0  0  0  0
    2.3037   -5.3194    0.0000 C   0  0  0  0  0  0  0  0  0  0  0  0
    2.3037   -1.3284    0.0000 C   0  0  0  0  0  0  0  0  0  0  0  0
    0.0000   -1.3284    0.0000 Cl  0  0  0  0  0  0  0  0  0  0  0  0
    4.6074   -3.9911    0.0000 C   0  0  0  0  0  0  0  0  0  0  0  0
    3.4526   -1.9925    0.0000 C   0  0  0  0  0  0  0  0  0  0  0  0
    3.4526   -5.9836    0.0000 C   0  0  0  0  0  0  0  0  0  0  0  0
    2.3037   -0.0000    0.0000 Cl  0  0  0  0  0  0  0  0  0  0  0  0
    4.6074   -5.3194    0.0000 C   0  0  0  0  0  0  0  0  0  0  0  0
    4.6074   -1.3284    0.0000 O   0  0  0  0  0  0  0  0  0  0  0  0
  1  2  2  0  0  0  0 
  2  3  1  0  0  0  0 
  2  4  1  0  0  0  0 
  3  5  2  0  0  0  0 
  3  6  1  0  0  0  0 
  7  4  2  0  0  0  0 
  4  8  1  0  0  0  0 
  5  9  1  0  0  0  0 
  5 10  1  0  0  0  0 
 11  6  2  0  0  0  0 
 10  7  1  0  0  0  0 
  7 12  1  0  0  0  0 
  9 13  2  0  0  0  0 
 10 14  2  0  0  0  0 
 13 11  1  0  0  0  0 
M  END
> <Name>
1,4-Naphthalenedione, 2,3-dichloro-

> <Source>
DSSTox2DMolFile

> <Tox>
6.360

> <CAS>
117-80-6

$$$$

  CDK

 15 16  0  0  0  0  0  0  0  0999 V2000
    1.3137   -0.8569   -2.0611 O   0  0  0  0  0  0  0  0  0  0  0  0
    1.8439   -0.2901   -0.9407 C   0  0  0  0  0  0  0  0  0  0  0  0
    1.1992   -0.3238    0.2743 C   0  0  0  0  0  0  0  0  0  0  0  0
    3.0828    0.3459   -1.0228 C   0  0  0  0  0  0  0  0  0  0  0  0
   -0.1282   -1.0009    0.3851 C   0  0  0  0  0  0  0  0  0  0  0  0
    1.7260    0.2439    1.4127 C   0  0  0  0  0  0  0  0  0  0  0  0
    3.6432    0.9306    0.1128 C   0  0  0  0  0  0  0  0  0  0  0  0
   -0.1291   -2.2084    0.6678 O   0  0  0  0  0  0  0  0  0  0  0  0
   -1.3828   -0.2961    0.1752 C   0  0  0  0  0  0  0  0  0  0  0  0
    2.9649    0.8797    1.3304 C   0  0  0  0  0  0  0  0  0  0  0  0
   -1.3749    1.0620   -0.1430 C   0  0  0  0  0  0  0  0  0  0  0  0
   -2.5940   -0.9782    0.2918 C   0  0  0  0  0  0  0  0  0  0  0  0
   -2.5783    1.7381   -0.3446 C   0  0  0  0  0  0  0  0  0  0  0  0
   -3.7973   -0.3019    0.0902 C   0  0  0  0  0  0  0  0  0  0  0  0
   -3.7893    1.0562   -0.2281 C   0  0  0  0  0  0  0  0  0  0  0  0
  1  2  1  0  0  0  0 
  3  2  1  0  0  0  0 
  2  4  2  0  0  0  0 
  3  5  1  0  0  0  0 
  3  6  2  0  0  0  0 
  4  7  1  0  0  0  0 
  8  5  2  0  0  0  0 
  9  5  1  0  0  0  0 
  6 10  1  0  0  0  0 
 10  7  2  0  0  0  0 
  9 11  2  0  0  0  0 
  9 12  1  0  0  0  0 
 11 13  1  0  0  0  0 
 12 14  2  0  0  0  0 
 13 15  2  0  0  0  0 
 14 15  1  0  0  0  0 
M  END
> <Name>
(2-hydroxyphenyl)-phenylmethanone

> <Source>
Chemidplus3DMolFile

> <Tox>
4.230

> <CAS>
117-99-7

$$$$

  CDK

 10 10  0  0  0  0  0  0  0  0999 V2000
    5.3182   -2.3028    0.0000 O   0  0  0  0  0  0  0  0  0  0  0  0
    3.9887   -2.3028    0.0000 C   0  0  0  0  0  0  0  0  0  0  0  0
    3.3239   -3.4568    0.0000 C   0  0  0  0  0  0  0  0  0  0  0  0
    3.3239   -1.1487    0.0000 C   0  0  0  0  0  0  0  0  0  0  0  0
    3.9887   -4.6056    0.0000 Br  0  0  0  0  0  0  0  0  0  0  0  0
    1.9943   -3.4568    0.0000 C   0  0  0  0  0  0  0  0  0  0  0  0
    1.9943   -1.1487    0.0000 C   0  0  0  0  0  0  0  0  0  0  0  0
    3.9887   -0.0000    0.0000 Br  0  0  0  0  0  0  0  0  0  0  0  0
    1.3296   -2.3028    0.0000 C   0  0  0  0  0  0  0  0  0  0  0  0
    0.0000   -2.3028    0.0000 Br  0  0  0  0  0  0  0  0  0  0  0  0
  1  2  1  0  0  0  0 
  2  3  2  0  0  0  0 
  2  4  1  0  0  0  0 
  3  5  1  0  0  0  0 
  3  6  1  0  0  0  0 
  7  4  2  0  0  0  0 
  4  8  1  0  0  0  0 
  6  9  2  0  0  0  0 
  9  7  1  0  0  0  0 
  9 10  1  0  0  0  0 
M  END
> <Name>
Phenol, 2,4,6-tribromo-

> <Source>
DSSTox2DMolFile

> <Tox>
4.910

> <CAS>
118-79-6

$$$$

  CDK

 10 10  0  0  0  0  0  0  0  0999 V2000
    3.9896   -2.3044    0.0000 C   0  0  0  0  0  0  0  0  0  0  0  0
    4.6553   -3.4542    0.0000 O   0  0  0  0  0  0  0  0  0  0  0  0
    4.6553   -1.1499    0.0000 O   0  0  0  0  0  0  0  0  0  0  0  0
    2.6582   -2.3044    0.0000 C   0  0  0  0  0  0  0  0  0  0  0  0
    1.9971   -3.4542    0.0000 C   0  0  0  0  0  0  0  0  0  0  0  0
    1.9971   -1.1499    0.0000 C   0  0  0  0  0  0  0  0  0  0  0  0
    0.6657   -3.4542    0.0000 C   0  0  0  0  0  0  0  0  0  0  0  0
    0.6657   -1.1499    0.0000 C   0  0  0  0  0  0  0  0  0  0  0  0
    2.6582   -0.0000    0.0000 Cl  0  0  0  0  0  0  0  0  0  0  0  0
    0.0000   -2.3044    0.0000 C   0  0  0  0  0  0  0  0  0  0  0  0
  1  2  2  0  0  0  0 
  1  3  1  0  0  0  0 
  1  4  1  0  0  0  0 
  4  5  2  0  0  0  0 
  4  6  1  0  0  0  0 
  5  7  1  0  0  0  0 
  8  6  2  0  0  0  0 
  6  9  1  0  0  0  0 
  7 10  2  0  0  0  0 
 10  8  1  0  0  0  0 
M  END
> <Name>
Benzoic acid, 2-chloro-

> <Source>
DSSTox2DMolFile

> <Tox>
2.550

> <CAS>
118-91-2

$$$$

  CDK

 11 11  0  0  0  0  0  0  0  0999 V2000
    1.1540   -1.3294    0.0000 C   0  0  0  0  0  0  0  0  0  0  0  0
    1.1540   -0.0000    0.0000 O   0  0  0  0  0  0  0  0  0  0  0  0
    2.3079   -2.0048    0.0000 C   0  0  0  0  0  0  0  0  0  0  0  0
    0.0000   -2.0048    0.0000 C   0  0  0  0  0  0  0  0  0  0  0  0
    2.3079   -3.3342    0.0000 C   0  0  0  0  0  0  0  0  0  0  0  0
    3.4459   -1.3294    0.0000 N   0  0  0  0  0  0  0  0  0  0  0  0
    0.0000   -3.3342    0.0000 C   0  0  0  0  0  0  0  0  0  0  0  0
    1.1540   -3.9883    0.0000 C   0  0  0  0  0  0  0  0  0  0  0  0
    3.4459   -0.0000    0.0000 O   0  0  0  0  0  0  0  0  0  0  0  0
    4.5946   -2.0048    0.0000 O   0  0  0  0  0  0  0  0  0  0  0  0
    1.1540   -5.3178    0.0000 C   0  0  0  0  0  0  0  0  0  0  0  0
  1  2  1  0  0  0  0 
  1  3  2  0  0  0  0 
  1  4  1  0  0  0  0 
  3  5  1  0  0  0  0 
  3  6  1  0  0  0  0 
  4  7  2  0  0  0  0 
  5  8  2  0  0  0  0 
  6  9  1  0  0  0  0 
  6 10  2  0  0  0  0 
  7  8  1  0  0  0  0 
  8 11  1  0  0  0  0 
M  CHG  1   6   1
M  CHG  1   9  -1
M  END
> <Name>
Phenol, 4-methyl-2-nitro-

> <Source>
DSSTox2DMolFile

> <Tox>
3.570

> <CAS>
119-33-5

$$$$

  CDK

 12 12  0  0  0  0  0  0  0  0999 V2000
    1.4976    0.8486    0.0000 C   0  0  0  0  0  0  0  0  0  0  0  0
    1.9968    1.7472    0.0000 C   0  0  0  0  0  0  0  0  0  0  0  0
    0.4992    0.8486    0.0000 N   0  0  0  0  0  0  0  0  0  0  0  0
    1.9968    0.0000    0.0000 C   0  0  0  0  0  0  0  0  0  0  0  0
    1.4976    2.5958    0.0000 O   0  0  0  0  0  0  0  0  0  0  0  0
    2.9951    1.7472    0.0000 C   0  0  0  0  0  0  0  0  0  0  0  0
    0.0000    0.0000    0.0000 O   0  0  0  0  0  0  0  0  0  0  0  0
    3.4943    2.5958    0.0000 C   0  0  0  0  0  0  0  0  0  0  0  0
    3.4943    0.8486    0.0000 C   0  0  0  0  0  0  0  0  0  0  0  0
    4.4927    2.5958    0.0000 C   0  0  0  0  0  0  0  0  0  0  0  0
    4.4927    0.8486    0.0000 C   0  0  0  0  0  0  0  0  0  0  0  0
    4.9919    1.7472    0.0000 C   0  0  0  0  0  0  0  0  0  0  0  0
  1  2  1  0  0  0  0 
  1  3  2  0  0  0  0 
  1  4  1  0  0  0  0 
  2  5  2  0  0  0  0 
  2  6  1  0  0  0  0 
  3  7  1  0  0  0  0 
  8  6  2  0  0  0  0 
  6  9  1  0  0  0  0 
 10  8  1  0  0  0  0 
  9 11  2  0  0  0  0 
 12 10  2  0  0  0  0 
 11 12  1  0  0  0  0 
M  END
> <Name>
1,2-Propanedione, 1-phenyl-, 2-oxime

> <Source>
NIST2DMolFile

> <Tox>
2.960

> <CAS>
119-51-7

$$$$

  CDK

 14 15  0  0  0  0  0  0  0  0999 V2000
    5.7567   -1.3269    0.0000 C   0  0  0  0  0  0  0  0  0  0  0  0
    6.9108   -1.9903    0.0000 C   0  0  0  0  0  0  0  0  0  0  0  0
    4.6095   -1.9903    0.0000 C   0  0  0  0  0  0  0  0  0  0  0  0
    6.9108   -3.3241    0.0000 C   0  0  0  0  0  0  0  0  0  0  0  0
    4.6095   -3.3241    0.0000 C   0  0  0  0  0  0  0  0  0  0  0  0
    3.4554   -1.3269    0.0000 C   0  0  0  0  0  0  0  0  0  0  0  0
    5.7567   -3.9875    0.0000 C   0  0  0  0  0  0  0  0  0  0  0  0
    3.4554   -0.0000    0.0000 O   0  0  0  0  0  0  0  0  0  0  0  0
    2.3013   -1.9903    0.0000 C   0  0  0  0  0  0  0  0  0  0  0  0
    2.3013   -3.3241    0.0000 C   0  0  0  0  0  0  0  0  0  0  0  0
    1.1541   -1.3269    0.0000 C   0  0  0  0  0  0  0  0  0  0  0  0
    1.1541   -3.9875    0.0000 C   0  0  0  0  0  0  0  0  0  0  0  0
    0.0000   -1.9903    0.0000 C   0  0  0  0  0  0  0  0  0  0  0  0
    0.0000   -3.3241    0.0000 C   0  0  0  0  0  0  0  0  0  0  0  0
  1  2  2  0  0  0  0 
  1  3  1  0  0  0  0 
  2  4  1  0  0  0  0 
  5  3  2  0  0  0  0 
  3  6  1  0  0  0  0 
  4  7  2  0  0  0  0 
  7  5  1  0  0  0  0 
  6  8  2  0  0  0  0 
  6  9  1  0  0  0  0 
  9 10  2  0  0  0  0 
  9 11  1  0  0  0  0 
 10 12  1  0  0  0  0 
 13 11  2  0  0  0  0 
 12 14  2  0  0  0  0 
 14 13  1  0  0  0  0 
M  END
> <Name>
Methanone, diphenyl-

> <Source>
DSSTox2DMolFile

> <Tox>
3.870

> <CAS>
119-61-9

$$$$

  CDK

 12 12  0  0  0  0  0  0  0  0999 V2000
    5.3199   -2.3050    0.0000 C   0  0  0  0  0  0  0  0  0  0  0  0
    3.9879   -2.3050    0.0000 C   0  0  0  0  0  0  0  0  0  0  0  0
    5.9818   -3.4535    0.0000 O   0  0  0  0  0  0  0  0  0  0  0  0
    5.9818   -1.1485    0.0000 O   0  0  0  0  0  0  0  0  0  0  0  0
    3.3259   -3.4535    0.0000 C   0  0  0  0  0  0  0  0  0  0  0  0
    3.3259   -1.1485    0.0000 C   0  0  0  0  0  0  0  0  0  0  0  0
    7.3138   -1.1485    0.0000 C   0  0  0  0  0  0  0  0  0  0  0  0
    1.9939   -3.4535    0.0000 C   0  0  0  0  0  0  0  0  0  0  0  0
    1.9939   -1.1485    0.0000 C   0  0  0  0  0  0  0  0  0  0  0  0
    7.9758   -0.0000    0.0000 C   0  0  0  0  0  0  0  0  0  0  0  0
    1.3320   -2.3050    0.0000 C   0  0  0  0  0  0  0  0  0  0  0  0
    0.0000   -2.3050    0.0000 O   0  0  0  0  0  0  0  0  0  0  0  0
  1  2  1  0  0  0  0 
  1  3  2  0  0  0  0 
  1  4  1  0  0  0  0 
  2  5  2  0  0  0  0 
  2  6  1  0  0  0  0 
  4  7  1  0  0  0  0 
  5  8  1  0  0  0  0 
  9  6  2  0  0  0  0 
  7 10  1  0  0  0  0 
  8 11  2  0  0  0  0 
 11  9  1  0  0  0  0 
 11 12  1  0  0  0  0 
M  END
> <Name>
ethyl 4-hydroxybenzoate

> <Source>
DSSTox2DMolFile

> <Tox>
3.570

> <CAS>
120-47-8

$$$$

  CDK

 13 13  0  0  0  0  0  0  0  0999 V2000
    0.0473    0.8158   -0.0212 C   0  0  0  0  0  0  0  0  0  0  0  0
   -1.3367    0.2692   -0.0177 C   0  0  0  0  0  0  0  0  0  0  0  0
    0.4633    1.7591   -0.6647 O   0  0  0  0  0  0  0  0  0  0  0  0
    0.8812    0.1480    0.8337 O   0  0  0  0  0  0  0  0  0  0  0  0
   -2.4201    1.1474    0.0316 C   0  0  0  0  0  0  0  0  0  0  0  0
   -1.5507   -1.1085   -0.0872 C   0  0  0  0  0  0  0  0  0  0  0  0
    2.2724    0.4317    0.8318 C   0  0  0  0  0  0  0  0  0  0  0  0
   -3.7161    0.6432    0.0185 C   0  0  0  0  0  0  0  0  0  0  0  0
   -2.8500   -1.6033   -0.1045 C   0  0  0  0  0  0  0  0  0  0  0  0
    3.0229   -0.2651   -0.3132 C   0  0  0  0  0  0  0  0  0  0  0  0
   -3.9313   -0.7295   -0.0496 C   0  0  0  0  0  0  0  0  0  0  0  0
    4.4833    0.1527   -0.2757 C   0  0  0  0  0  0  0  0  0  0  0  0
    2.9009   -1.7764   -0.2178 C   0  0  0  0  0  0  0  0  0  0  0  0
  1  2  1  0  0  0  0 
  1  3  2  0  0  0  0 
  1  4  1  0  0  0  0 
  2  5  1  0  0  0  0 
  2  6  2  0  0  0  0 
  4  7  1  0  0  0  0 
  5  8  2  0  0  0  0 
  9  6  1  0  0  0  0 
  7 10  1  0  0  0  0 
  8 11  1  0  0  0  0 
 11  9  2  0  0  0  0 
 10 12  1  0  0  0  0 
 10 13  1  0  0  0  0 
M  END
> <Name>
Benzoic acid, isobutyl ester (6CI,7CI,8CI)

> <Source>
DougDB3DMolFile

> <Tox>
3.980

> <CAS>
120-50-3

$$$$

  CDK

 16 17  0  0  0  0  0  0  0  0999 V2000
    3.4656   -1.3273    0.0000 C   0  0  0  0  0  0  0  0  0  0  0  0
    3.4656   -0.0000    0.0000 O   0  0  0  0  0  0  0  0  0  0  0  0
    2.3043   -1.9909    0.0000 C   0  0  0  0  0  0  0  0  0  0  0  0
    4.6178   -1.9909    0.0000 O   0  0  0  0  0  0  0  0  0  0  0  0
    2.3043   -3.3182    0.0000 C   0  0  0  0  0  0  0  0  0  0  0  0
    1.1521   -1.3273    0.0000 C   0  0  0  0  0  0  0  0  0  0  0  0
    5.7515   -1.3273    0.0000 C   0  0  0  0  0  0  0  0  0  0  0  0
    1.1521   -3.9910    0.0000 C   0  0  0  0  0  0  0  0  0  0  0  0
    0.0000   -1.9909    0.0000 C   0  0  0  0  0  0  0  0  0  0  0  0
    6.9128   -1.9909    0.0000 C   0  0  0  0  0  0  0  0  0  0  0  0
    0.0000   -3.3182    0.0000 C   0  0  0  0  0  0  0  0  0  0  0  0
    8.0650   -1.3273    0.0000 C   0  0  0  0  0  0  0  0  0  0  0  0
    6.9128   -3.3182    0.0000 C   0  0  0  0  0  0  0  0  0  0  0  0
    9.2171   -1.9909    0.0000 C   0  0  0  0  0  0  0  0  0  0  0  0
    8.0650   -3.9910    0.0000 C   0  0  0  0  0  0  0  0  0  0  0  0
    9.2171   -3.3182    0.0000 C   0  0  0  0  0  0  0  0  0  0  0  0
  1  2  2  0  0  0  0 
  1  3  1  0  0  0  0 
  1  4  1  0  0  0  0 
  3  5  2  0  0  0  0 
  3  6  1  0  0  0  0 
  4  7  1  0  0  0  0 
  5  8  1  0  0  0  0 
  6  9  2  0  0  0  0 
  7 10  1  0  0  0  0 
  8 11  2  0  0  0  0 
  9 11  1  0  0  0  0 
 10 12  2  0  0  0  0 
 10 13  1  0  0  0  0 
 12 14  1  0  0  0  0 
 13 15  2  0  0  0  0 
 14 16  2  0  0  0  0 
 15 16  1  0  0  0  0 
M  END
> <Name>
Benzoic acid, phenylmethyl ester

> <Source>
DSSTox2DMolFile

> <Tox>
4.450

> <CAS>
120-51-4

$$$$

  CDK

  9 10  0  0  0  0  0  0  0  0999 V2000
    3.5678   -0.2561    0.0000 N   0  0  0  0  0  0  0  0  0  0  0  0
    4.3404   -1.3195    0.0000 C   0  0  0  0  0  0  0  0  0  0  0  0
    2.3004   -0.6597    0.0000 C   0  0  0  0  0  0  0  0  0  0  0  0
    3.5678   -2.4132    0.0000 C   0  0  0  0  0  0  0  0  0  0  0  0
    2.3004   -2.0096    0.0000 C   0  0  0  0  0  0  0  0  0  0  0  0
    1.1589   -0.0000    0.0000 C   0  0  0  0  0  0  0  0  0  0  0  0
    1.1589   -2.6693    0.0000 C   0  0  0  0  0  0  0  0  0  0  0  0
    0.0000   -0.6771    0.0000 C   0  0  0  0  0  0  0  0  0  0  0  0
    0.0000   -1.9922    0.0000 C   0  0  0  0  0  0  0  0  0  0  0  0
  1  2  1  0  0  0  0 
  1  3  1  0  0  0  0 
  2  4  2  0  0  0  0 
  3  5  2  0  0  0  0 
  3  6  1  0  0  0  0 
  5  4  1  0  0  0  0 
  5  7  1  0  0  0  0 
  6  8  2  0  0  0  0 
  7  9  2  0  0  0  0 
  9  8  1  0  0  0  0 
M  END
> <Name>
1H-Indole

> <Source>
DSSTox2DMolFile

> <Tox>
3.210

> <CAS>
120-72-9

$$$$

  CDK

  8  8  0  0  0  0  0  0  0  0999 V2000
    0.0000   -2.3027    0.0000 O   0  0  0  0  0  0  0  0  0  0  0  0
    1.3289   -2.3027    0.0000 C   0  0  0  0  0  0  0  0  0  0  0  0
    1.9954   -1.1533    0.0000 C   0  0  0  0  0  0  0  0  0  0  0  0
    1.9954   -3.4560    0.0000 C   0  0  0  0  0  0  0  0  0  0  0  0
    3.3243   -1.1533    0.0000 C   0  0  0  0  0  0  0  0  0  0  0  0
    1.3289   -0.0000    0.0000 O   0  0  0  0  0  0  0  0  0  0  0  0
    3.3243   -3.4560    0.0000 C   0  0  0  0  0  0  0  0  0  0  0  0
    3.9907   -2.3027    0.0000 C   0  0  0  0  0  0  0  0  0  0  0  0
  1  2  1  0  0  0  0 
  2  3  2  0  0  0  0 
  2  4  1  0  0  0  0 
  3  5  1  0  0  0  0 
  3  6  1  0  0  0  0 
  7  4  2  0  0  0  0 
  5  8  2  0  0  0  0 
  8  7  1  0  0  0  0 
M  END
> <Name>
1,2-Benzenediol

> <Source>
DSSTox2DMolFile

> <Tox>
3.750

> <CAS>
120-80-9

$$$$

  CDK

 13 13  0  0  0  0  0  0  0  0999 V2000
    5.7563   -0.0000    0.0000 C   0  0  0  0  0  0  0  0  0  0  0  0
    4.6092   -0.6634    0.0000 C   0  0  0  0  0  0  0  0  0  0  0  0
    4.6092   -1.9902    0.0000 C   0  0  0  0  0  0  0  0  0  0  0  0
    3.4552   -0.0000    0.0000 C   0  0  0  0  0  0  0  0  0  0  0  0
    5.7563   -2.6605    0.0000 N   0  0  0  0  0  0  0  0  0  0  0  0
    3.4552   -2.6605    0.0000 C   0  0  0  0  0  0  0  0  0  0  0  0
    2.3011   -0.6634    0.0000 C   0  0  0  0  0  0  0  0  0  0  0  0
    6.9103   -1.9902    0.0000 O   0  0  0  0  0  0  0  0  0  0  0  0
    5.7563   -3.9873    0.0000 O   0  0  0  0  0  0  0  0  0  0  0  0
    2.3011   -1.9902    0.0000 C   0  0  0  0  0  0  0  0  0  0  0  0
    1.1540   -2.6605    0.0000 N   0  0  0  0  0  0  0  0  0  0  0  0
    0.0000   -1.9902    0.0000 O   0  0  0  0  0  0  0  0  0  0  0  0
    1.1540   -3.9873    0.0000 O   0  0  0  0  0  0  0  0  0  0  0  0
  1  2  1  0  0  0  0 
  2  3  2  0  0  0  0 
  2  4  1  0  0  0  0 
  3  5  1  0  0  0  0 
  3  6  1  0  0  0  0 
  7  4  2  0  0  0  0 
  5  8  1  0  0  0  0 
  5  9  2  0  0  0  0 
  6 10  2  0  0  0  0 
 10  7  1  0  0  0  0 
 10 11  1  0  0  0  0 
 11 12  1  0  0  0  0 
 11 13  2  0  0  0  0 
M  CHG  1   5   1
M  CHG  1   8  -1
M  CHG  1  11   1
M  CHG  1  12  -1
M  END
> <Name>
Benzene, 1-methyl-2,4-dinitro-

> <Source>
DSSTox2DMolFile

> <Tox>
3.870

> <CAS>
121-14-2

$$$$

  CDK

 14 14  0  0  0  0  0  0  0  0999 V2000
    0.0000   -1.9902    0.0000 O   0  0  0  0  0  0  0  0  0  0  0  0
    1.1541   -2.6606    0.0000 N   0  0  0  0  0  0  0  0  0  0  0  0
    1.1541   -3.9874    0.0000 O   0  0  0  0  0  0  0  0  0  0  0  0
    2.3012   -1.9902    0.0000 C   0  0  0  0  0  0  0  0  0  0  0  0
    2.3012   -0.6634    0.0000 C   0  0  0  0  0  0  0  0  0  0  0  0
    3.4553   -2.6606    0.0000 C   0  0  0  0  0  0  0  0  0  0  0  0
    3.4553   -0.0000    0.0000 C   0  0  0  0  0  0  0  0  0  0  0  0
    1.1541   -0.0000    0.0000 Cl  0  0  0  0  0  0  0  0  0  0  0  0
    4.6093   -1.9902    0.0000 C   0  0  0  0  0  0  0  0  0  0  0  0
    4.6093   -0.6634    0.0000 C   0  0  0  0  0  0  0  0  0  0  0  0
    5.7565   -2.6606    0.0000 C   0  0  0  0  0  0  0  0  0  0  0  0
    6.9105   -3.3240    0.0000 F   0  0  0  0  0  0  0  0  0  0  0  0
    5.0931   -3.8077    0.0000 F   0  0  0  0  0  0  0  0  0  0  0  0
    6.4268   -1.5065    0.0000 F   0  0  0  0  0  0  0  0  0  0  0  0
  1  2  2  0  0  0  0 
  2  3  1  0  0  0  0 
  2  4  1  0  0  0  0 
  4  5  2  0  0  0  0 
  4  6  1  0  0  0  0 
  5  7  1  0  0  0  0 
  5  8  1  0  0  0  0 
  9  6  2  0  0  0  0 
  7 10  2  0  0  0  0 
 10  9  1  0  0  0  0 
  9 11  1  0  0  0  0 
 11 12  1  0  0  0  0 
 11 13  1  0  0  0  0 
 11 14  1  0  0  0  0 
M  CHG  1   2   1
M  CHG  1   3  -1
M  END
> <Name>
Toluene, 4-chloro-alpha,alpha,alpha-trifluoro-3-nitro- (8CI)

> <Source>
DSSTox2DMolFile

> <Tox>
3.850

> <CAS>
121-17-5

$$$$

  CDK

 12 12  0  0  0  0  0  0  0  0999 V2000
    8.0680   -2.0009    0.0000 O   0  0  0  0  0  0  0  0  0  0  0  0
    6.9143   -2.6624    0.0000 C   0  0  0  0  0  0  0  0  0  0  0  0
    5.7605   -2.0009    0.0000 C   0  0  0  0  0  0  0  0  0  0  0  0
    4.6068   -2.6624    0.0000 C   0  0  0  0  0  0  0  0  0  0  0  0
    5.7605   -0.6696    0.0000 C   0  0  0  0  0  0  0  0  0  0  0  0
    3.4612   -2.0009    0.0000 C   0  0  0  0  0  0  0  0  0  0  0  0
    4.6068   -0.0000    0.0000 C   0  0  0  0  0  0  0  0  0  0  0  0
    2.3074   -2.6624    0.0000 O   0  0  0  0  0  0  0  0  0  0  0  0
    3.4612   -0.6696    0.0000 C   0  0  0  0  0  0  0  0  0  0  0  0
    1.1537   -2.0009    0.0000 C   0  0  0  0  0  0  0  0  0  0  0  0
    2.3074   -0.0000    0.0000 O   0  0  0  0  0  0  0  0  0  0  0  0
    0.0000   -2.6624    0.0000 C   0  0  0  0  0  0  0  0  0  0  0  0
  1  2  2  0  0  0  0 
  2  3  1  0  0  0  0 
  3  4  2  0  0  0  0 
  3  5  1  0  0  0  0 
  4  6  1  0  0  0  0 
  7  5  2  0  0  0  0 
  6  8  1  0  0  0  0 
  6  9  2  0  0  0  0 
  9  7  1  0  0  0  0 
  8 10  1  0  0  0  0 
  9 11  1  0  0  0  0 
 10 12  1  0  0  0  0 
M  END
> <Name>
Benzaldehyde, 3-ethoxy-4-hydroxy-

> <Source>
DSSTox2DMolFile

> <Tox>
3.020

> <CAS>
121-32-4

$$$$

  CDK

 11 11  0  0  0  0  0  0  0  0999 V2000
    4.6094   -1.9972    0.0000 C   0  0  0  0  0  0  0  0  0  0  0  0
    5.7565   -2.6606    0.0000 C   0  0  0  0  0  0  0  0  0  0  0  0
    3.4553   -2.6606    0.0000 C   0  0  0  0  0  0  0  0  0  0  0  0
    4.6094   -0.6634    0.0000 C   0  0  0  0  0  0  0  0  0  0  0  0
    6.9106   -1.9972    0.0000 O   0  0  0  0  0  0  0  0  0  0  0  0
    2.3012   -1.9972    0.0000 C   0  0  0  0  0  0  0  0  0  0  0  0
    3.4553   -0.0000    0.0000 C   0  0  0  0  0  0  0  0  0  0  0  0
    1.1541   -2.6606    0.0000 O   0  0  0  0  0  0  0  0  0  0  0  0
    2.3012   -0.6634    0.0000 C   0  0  0  0  0  0  0  0  0  0  0  0
    0.0000   -1.9972    0.0000 C   0  0  0  0  0  0  0  0  0  0  0  0
    1.1541   -0.0000    0.0000 O   0  0  0  0  0  0  0  0  0  0  0  0
  1  2  1  0  0  0  0 
  1  3  2  0  0  0  0 
  1  4  1  0  0  0  0 
  2  5  2  0  0  0  0 
  3  6  1  0  0  0  0 
  7  4  2  0  0  0  0 
  6  8  1  0  0  0  0 
  6  9  2  0  0  0  0 
  9  7  1  0  0  0  0 
  8 10  1  0  0  0  0 
  9 11  1  0  0  0  0 
M  END
> <Name>
Benzaldehyde, 4-hydroxy-3-methoxy-

> <Source>
DSSTox2DMolFile

> <Tox>
2.970

> <CAS>
121-33-5

$$$$

  CDK

  9  9  0  0  0  0  0  0  0  0999 V2000
    0.0000   -2.3037    0.0000 C   0  0  0  0  0  0  0  0  0  0  0  0
    0.6655   -1.1542    0.0000 N   0  0  0  0  0  0  0  0  0  0  0  0
    1.9965   -1.1542    0.0000 C   0  0  0  0  0  0  0  0  0  0  0  0
    0.0000   -0.0000    0.0000 C   0  0  0  0  0  0  0  0  0  0  0  0
    2.6574   -0.0000    0.0000 C   0  0  0  0  0  0  0  0  0  0  0  0
    2.6574   -2.3037    0.0000 C   0  0  0  0  0  0  0  0  0  0  0  0
    3.9884   -0.0000    0.0000 C   0  0  0  0  0  0  0  0  0  0  0  0
    3.9884   -2.3037    0.0000 C   0  0  0  0  0  0  0  0  0  0  0  0
    4.6539   -1.1542    0.0000 C   0  0  0  0  0  0  0  0  0  0  0  0
  1  2  1  0  0  0  0 
  2  3  1  0  0  0  0 
  2  4  1  0  0  0  0 
  3  5  2  0  0  0  0 
  3  6  1  0  0  0  0 
  5  7  1  0  0  0  0 
  8  6  2  0  0  0  0 
  7  9  2  0  0  0  0 
  9  8  1  0  0  0  0 
M  END
> <Name>
Benzenamine, N,N-dimethyl-

> <Source>
DSSTox2DMolFile

> <Tox>
3.280

> <CAS>
121-69-7

$$$$

  CDK

 10 10  0  0  0  0  0  0  0  0999 V2000
    0.0000   -0.0000    0.0000 Cl  0  0  0  0  0  0  0  0  0  0  0  0
    0.6656   -1.1497    0.0000 C   0  0  0  0  0  0  0  0  0  0  0  0
    1.9968   -1.1497    0.0000 C   0  0  0  0  0  0  0  0  0  0  0  0
    0.0000   -2.3040    0.0000 C   0  0  0  0  0  0  0  0  0  0  0  0
    2.6577   -2.3040    0.0000 C   0  0  0  0  0  0  0  0  0  0  0  0
    0.6656   -3.4536    0.0000 C   0  0  0  0  0  0  0  0  0  0  0  0
    3.9889   -2.3040    0.0000 N   0  0  0  0  0  0  0  0  0  0  0  0
    1.9968   -3.4536    0.0000 C   0  0  0  0  0  0  0  0  0  0  0  0
    4.6545   -3.4536    0.0000 O   0  0  0  0  0  0  0  0  0  0  0  0
    4.6545   -1.1497    0.0000 O   0  0  0  0  0  0  0  0  0  0  0  0
  1  2  1  0  0  0  0 
  2  3  2  0  0  0  0 
  2  4  1  0  0  0  0 
  3  5  1  0  0  0  0 
  6  4  2  0  0  0  0 
  5  7  1  0  0  0  0 
  5  8  2  0  0  0  0 
  8  6  1  0  0  0  0 
  7  9  2  0  0  0  0 
  7 10  1  0  0  0  0 
M  CHG  1   7   1
M  CHG  1  10  -1
M  END
> <Name>
Benzene, 1-chloro-3-nitro-

> <Source>
DSSTox2DMolFile

> <Tox>
3.730

> <CAS>
121-73-3

$$$$

  CDK

 12 12  0  0  0  0  0  0  0  0999 V2000
    1.1537   -3.9861    0.0000 O   0  0  0  0  0  0  0  0  0  0  0  0
    1.1537   -2.6597    0.0000 C   0  0  0  0  0  0  0  0  0  0  0  0
    2.3004   -1.9896    0.0000 C   0  0  0  0  0  0  0  0  0  0  0  0
    0.0000   -1.9896    0.0000 C   0  0  0  0  0  0  0  0  0  0  0  0
    2.3004   -0.6632    0.0000 C   0  0  0  0  0  0  0  0  0  0  0  0
    3.4541   -2.6597    0.0000 C   0  0  0  0  0  0  0  0  0  0  0  0
    3.4541   -0.0000    0.0000 C   0  0  0  0  0  0  0  0  0  0  0  0
    4.6078   -1.9896    0.0000 C   0  0  0  0  0  0  0  0  0  0  0  0
    4.6078   -0.6632    0.0000 C   0  0  0  0  0  0  0  0  0  0  0  0
    5.7546   -2.6597    0.0000 N   0  0  0  0  0  0  0  0  0  0  0  0
    6.9082   -1.9896    0.0000 O   0  0  0  0  0  0  0  0  0  0  0  0
    5.7546   -3.9861    0.0000 O   0  0  0  0  0  0  0  0  0  0  0  0
  1  2  2  0  0  0  0 
  2  3  1  0  0  0  0 
  2  4  1  0  0  0  0 
  3  5  2  0  0  0  0 
  3  6  1  0  0  0  0 
  5  7  1  0  0  0  0 
  8  6  2  0  0  0  0 
  7  9  2  0  0  0  0 
  9  8  1  0  0  0  0 
  8 10  1  0  0  0  0 
 10 11  1  0  0  0  0 
 10 12  2  0  0  0  0 
M  CHG  1  10   1
M  CHG  1  11  -1
M  END
> <Name>
Ethanone, 1-(3-nitrophenyl)-

> <Source>
DSSTox2DMolFile

> <Tox>
3.320

> <CAS>
121-89-1

$$$$

  CDK

 11 11  0  0  0  0  0  0  0  0999 V2000
    4.6576   -1.1511    0.0000 C   0  0  0  0  0  0  0  0  0  0  0  0
    5.9884   -1.1511    0.0000 C   0  0  0  0  0  0  0  0  0  0  0  0
    3.9923   -2.3022    0.0000 C   0  0  0  0  0  0  0  0  0  0  0  0
    3.9923   -0.0000    0.0000 C   0  0  0  0  0  0  0  0  0  0  0  0
    6.6538   -0.0000    0.0000 O   0  0  0  0  0  0  0  0  0  0  0  0
    2.6615   -2.3022    0.0000 C   0  0  0  0  0  0  0  0  0  0  0  0
    2.6615   -0.0000    0.0000 C   0  0  0  0  0  0  0  0  0  0  0  0
    1.9961   -1.1511    0.0000 C   0  0  0  0  0  0  0  0  0  0  0  0
    0.6654   -1.1511    0.0000 C   0  0  0  0  0  0  0  0  0  0  0  0
    0.0000   -2.3022    0.0000 C   0  0  0  0  0  0  0  0  0  0  0  0
    0.0000   -0.0000    0.0000 C   0  0  0  0  0  0  0  0  0  0  0  0
  1  2  1  0  0  0  0 
  1  3  2  0  0  0  0 
  1  4  1  0  0  0  0 
  2  5  2  0  0  0  0 
  3  6  1  0  0  0  0 
  7  4  2  0  0  0  0 
  6  8  2  0  0  0  0 
  8  7  1  0  0  0  0 
  8  9  1  0  0  0  0 
  9 10  1  0  0  0  0 
  9 11  1  0  0  0  0 
M  END
> <Name>
Benzaldehyde, 4-(1-methylethyl)-

> <Source>
DSSTox2DMolFile

> <Tox>
3.670

> <CAS>
122-03-2

$$$$

  CDK

  9  9  0  0  0  0  0  0  0  0999 V2000
    0.0000   -0.0000    0.0000 O   0  0  0  0  0  0  0  0  0  0  0  0
    1.3283   -0.0000    0.0000 C   0  0  0  0  0  0  0  0  0  0  0  0
    1.9925   -1.1548    0.0000 C   0  0  0  0  0  0  0  0  0  0  0  0
    3.3269   -1.1548    0.0000 C   0  0  0  0  0  0  0  0  0  0  0  0
    3.9910   -0.0000    0.0000 C   0  0  0  0  0  0  0  0  0  0  0  0
    3.9910   -2.3037    0.0000 C   0  0  0  0  0  0  0  0  0  0  0  0
    5.3194   -0.0000    0.0000 C   0  0  0  0  0  0  0  0  0  0  0  0
    5.3194   -2.3037    0.0000 C   0  0  0  0  0  0  0  0  0  0  0  0
    5.9836   -1.1548    0.0000 C   0  0  0  0  0  0  0  0  0  0  0  0
  1  2  2  0  0  0  0 
  2  3  1  0  0  0  0 
  3  4  1  0  0  0  0 
  4  5  2  0  0  0  0 
  4  6  1  0  0  0  0 
  5  7  1  0  0  0  0 
  8  6  2  0  0  0  0 
  7  9  2  0  0  0  0 
  9  8  1  0  0  0  0 
M  END
> <Name>
Acetaldehyde, phenyl- (8CI)

> <Source>
DSSTox2DMolFile

> <Tox>
3.870

> <CAS>
122-78-1

$$$$

  CDK

 12 12  0  0  0  0  0  0  0  0999 V2000
    4.3874    2.6239    0.9562 C   0  0  0  0  0  0  0  0  0  0  0  0
    5.7067    2.1000    1.0483 O   0  0  0  0  0  0  0  0  0  0  0  0
    3.4447    1.4265    1.0467 C   0  0  0  0  0  0  0  0  0  0  0  0
    6.7465    3.0030    0.9559 C   0  0  0  0  0  0  0  0  0  0  0  0
    1.9978    1.8857    0.9639 C   0  0  0  0  0  0  0  0  0  0  0  0
    6.6161    4.3918    0.8441 C   0  0  0  0  0  0  0  0  0  0  0  0
    8.0155    2.4032    0.9939 C   0  0  0  0  0  0  0  0  0  0  0  0
    1.0441    0.7157    1.0491 C   0  0  0  0  0  0  0  0  0  0  0  0
    7.7546    5.1850    0.7707 C   0  0  0  0  0  0  0  0  0  0  0  0
    9.1516    3.1944    0.9205 C   0  0  0  0  0  0  0  0  0  0  0  0
    9.0184    4.5857    0.8094 C   0  0  0  0  0  0  0  0  0  0  0  0
   10.0923    5.4350    0.7319 O   0  0  0  0  0  0  0  0  0  0  0  0
  1  2  1  0  0  0  0 
  1  3  1  0  0  0  0 
  2  4  1  0  0  0  0 
  3  5  1  0  0  0  0 
  4  6  2  0  0  0  0 
  7  4  1  0  0  0  0 
  5  8  1  0  0  0  0 
  6  9  1  0  0  0  0 
 10  7  2  0  0  0  0 
  9 11  2  0  0  0  0 
 11 10  1  0  0  0  0 
 11 12  1  0  0  0  0 
M  END
> <Name>
Phenol, p-butoxy- (8CI)

> <Source>
NIST3DMolFile

> <Tox>
3.700

> <CAS>
122-94-1

$$$$

  CDK

 10 10  0  0  0  0  0  0  0  0999 V2000
    2.7167    0.5082   -0.1291 C   0  0  0  0  0  0  0  0  0  0  0  0
    2.1620   -0.9177   -0.1078 C   0  0  0  0  0  0  0  0  0  0  0  0
    1.9423    1.4131   -0.8674 O   0  0  0  0  0  0  0  0  0  0  0  0
    1.0505   -1.1204    0.9146 C   0  0  0  0  0  0  0  0  0  0  0  0
   -0.2584   -0.5491    0.4704 C   0  0  0  0  0  0  0  0  0  0  0  0
   -0.9969   -1.1889   -0.5276 C   0  0  0  0  0  0  0  0  0  0  0  0
   -0.7601    0.6144    1.0562 C   0  0  0  0  0  0  0  0  0  0  0  0
   -2.2207   -0.6702   -0.9332 C   0  0  0  0  0  0  0  0  0  0  0  0
   -1.9856    1.1302    0.6480 C   0  0  0  0  0  0  0  0  0  0  0  0
   -2.7168    0.4897   -0.3461 C   0  0  0  0  0  0  0  0  0  0  0  0
  1  2  1  0  0  0  0 
  1  3  1  0  0  0  0 
  2  4  1  0  0  0  0 
  4  5  1  0  0  0  0 
  5  6  1  0  0  0  0 
  5  7  2  0  0  0  0 
  6  8  2  0  0  0  0 
  9  7  1  0  0  0  0 
  8 10  1  0  0  0  0 
 10  9  2  0  0  0  0 
M  END
> <Name>
1-Propanol, 3-phenyl-

> <Source>
DougDB3DMolFile

> <Tox>
2.790

> <CAS>
122-97-4

$$$$

  CDK

 10 10  0  0  0  0  0  0  0  0999 V2000
    5.9892   -1.1592    0.0000 C   0  0  0  0  0  0  0  0  0  0  0  0
    6.6621   -2.2984    0.0000 O   0  0  0  0  0  0  0  0  0  0  0  0
    4.6568   -1.1592    0.0000 C   0  0  0  0  0  0  0  0  0  0  0  0
    3.9973   -2.2984    0.0000 C   0  0  0  0  0  0  0  0  0  0  0  0
    3.9973   -0.0000    0.0000 C   0  0  0  0  0  0  0  0  0  0  0  0
    2.6648   -2.2984    0.0000 C   0  0  0  0  0  0  0  0  0  0  0  0
    2.6648   -0.0000    0.0000 C   0  0  0  0  0  0  0  0  0  0  0  0
    1.9920   -1.1592    0.0000 C   0  0  0  0  0  0  0  0  0  0  0  0
    0.6595   -1.1592    0.0000 O   0  0  0  0  0  0  0  0  0  0  0  0
    0.0000   -0.0000    0.0000 C   0  0  0  0  0  0  0  0  0  0  0  0
  1  2  2  0  0  0  0 
  1  3  1  0  0  0  0 
  3  4  2  0  0  0  0 
  3  5  1  0  0  0  0 
  4  6  1  0  0  0  0 
  5  7  2  0  0  0  0 
  6  8  2  0  0  0  0 
  7  8  1  0  0  0  0 
  8  9  1  0  0  0  0 
  9 10  1  0  0  0  0 
M  END
> <Name>
Benzaldehyde, 4-methoxy-

> <Source>
DSSTox2DMolFile

> <Tox>
2.953

> <CAS>
123-11-5

$$$$

  CDK

  7  6  0  0  0  0  0  0  0  0999 V2000
    2.6592   -0.0000    0.0000 C   0  0  0  0  0  0  0  0  0  0  0  0
    1.9979   -1.1550    0.0000 C   0  0  0  0  0  0  0  0  0  0  0  0
    0.6660   -1.1550    0.0000 C   0  0  0  0  0  0  0  0  0  0  0  0
    2.6592   -2.3053    0.0000 C   0  0  0  0  0  0  0  0  0  0  0  0
    0.0000   -2.3053    0.0000 O   0  0  0  0  0  0  0  0  0  0  0  0
    3.9912   -2.3053    0.0000 C   0  0  0  0  0  0  0  0  0  0  0  0
    4.6571   -1.1550    0.0000 C   0  0  0  0  0  0  0  0  0  0  0  0
  1  2  1  0  0  0  0 
  2  3  1  0  0  0  0 
  2  4  1  0  0  0  0 
  3  5  2  0  0  0  0 
  4  6  1  0  0  0  0 
  6  7  1  0  0  0  0 
M  END
> <Name>
Valeraldehyde, 2-methyl- (8CI)

> <Source>
DSSTox2DMolFile

> <Tox>
2.526

> <CAS>
123-15-9

$$$$

  CDK

  8  7  0  0  0  0  0  0  0  0999 V2000
    3.7621    0.6302   -0.0302 C   0  0  0  0  0  0  0  0  0  0  0  0
    2.5467   -0.2608    0.0965 C   0  0  0  0  0  0  0  0  0  0  0  0
    1.2648    0.5282   -0.1026 C   0  0  0  0  0  0  0  0  0  0  0  0
   -0.0001   -0.3001    0.0024 C   0  0  0  0  0  0  0  0  0  0  0  0
   -1.2656    0.5266    0.1101 C   0  0  0  0  0  0  0  0  0  0  0  0
    0.0008   -1.5154    0.0008 O   0  0  0  0  0  0  0  0  0  0  0  0
   -2.5466   -0.2608   -0.1012 C   0  0  0  0  0  0  0  0  0  0  0  0
   -3.7621    0.6302    0.0245 C   0  0  0  0  0  0  0  0  0  0  0  0
  1  2  1  0  0  0  0 
  2  3  1  0  0  0  0 
  3  4  1  0  0  0  0 
  4  5  1  0  0  0  0 
  4  6  2  0  0  0  0 
  5  7  1  0  0  0  0 
  7  8  1  0  0  0  0 
M  END
> <Name>
4-Heptanone

> <Source>
DougDB3DMolFile

> <Tox>
2.331

> <CAS>
123-19-3

$$$$

  CDK

  8  7  0  0  0  0  0  0  0  0999 V2000
   -0.0889    0.3151   -0.0014 C   0  0  0  0  0  0  0  0  0  0  0  0
    1.1566   -0.5404   -0.0031 C   0  0  0  0  0  0  0  0  0  0  0  0
   -0.1854    1.5239   -0.0014 O   0  0  0  0  0  0  0  0  0  0  0  0
   -1.2246   -0.4618   -0.0001 O   0  0  0  0  0  0  0  0  0  0  0  0
    2.4328    0.2854    0.0039 C   0  0  0  0  0  0  0  0  0  0  0  0
   -2.4732    0.1394    0.0009 C   0  0  0  0  0  0  0  0  0  0  0  0
    3.6533   -0.6075    0.0001 C   0  0  0  0  0  0  0  0  0  0  0  0
   -3.5230   -0.6824    0.0012 C   0  0  0  0  0  0  0  0  0  0  0  0
  1  2  1  0  0  0  0 
  1  3  2  0  0  0  0 
  1  4  1  0  0  0  0 
  2  5  1  0  0  0  0 
  4  6  1  0  0  0  0 
  5  7  1  0  0  0  0 
  6  8  2  0  0  0  0 
M  END
> <Name>
Butanoic acid, ethenyl ester (9CI)

> <Source>
DougDB3DMolFile

> <Tox>
2.618

> <CAS>
123-20-6

$$$$

  CDK

  8  8  0  0  0  0  0  0  0  0999 V2000
    0.0000   -1.1545    0.0000 O   0  0  0  0  0  0  0  0  0  0  0  0
    1.3300   -1.1545    0.0000 C   0  0  0  0  0  0  0  0  0  0  0  0
    1.9950   -0.0000    0.0000 C   0  0  0  0  0  0  0  0  0  0  0  0
    1.9950   -2.3036    0.0000 C   0  0  0  0  0  0  0  0  0  0  0  0
    3.3250   -0.0000    0.0000 C   0  0  0  0  0  0  0  0  0  0  0  0
    3.3250   -2.3036    0.0000 C   0  0  0  0  0  0  0  0  0  0  0  0
    3.9900   -1.1545    0.0000 C   0  0  0  0  0  0  0  0  0  0  0  0
    5.3201   -1.1545    0.0000 N   0  0  0  0  0  0  0  0  0  0  0  0
  1  2  1  0  0  0  0 
  2  3  2  0  0  0  0 
  2  4  1  0  0  0  0 
  3  5  1  0  0  0  0 
  6  4  2  0  0  0  0 
  5  7  2  0  0  0  0 
  7  6  1  0  0  0  0 
  7  8  1  0  0  0  0 
M  END
> <Name>
Phenol, 4-amino-

> <Source>
DSSTox2DMolFile

> <Tox>
2.920

> <CAS>
123-30-8

$$$$

  CDK

  8  8  0  0  0  0  0  0  0  0999 V2000
    0.0000   -1.1545    0.0000 O   0  0  0  0  0  0  0  0  0  0  0  0
    1.3300   -1.1545    0.0000 C   0  0  0  0  0  0  0  0  0  0  0  0
    1.9950   -0.0000    0.0000 C   0  0  0  0  0  0  0  0  0  0  0  0
    1.9950   -2.3036    0.0000 C   0  0  0  0  0  0  0  0  0  0  0  0
    3.3250   -0.0000    0.0000 C   0  0  0  0  0  0  0  0  0  0  0  0
    3.3250   -2.3036    0.0000 C   0  0  0  0  0  0  0  0  0  0  0  0
    3.9900   -1.1545    0.0000 C   0  0  0  0  0  0  0  0  0  0  0  0
    5.3201   -1.1545    0.0000 O   0  0  0  0  0  0  0  0  0  0  0  0
  1  2  1  0  0  0  0 
  2  3  2  0  0  0  0 
  2  4  1  0  0  0  0 
  3  5  1  0  0  0  0 
  6  4  2  0  0  0  0 
  5  7  2  0  0  0  0 
  7  6  1  0  0  0  0 
  7  8  1  0  0  0  0 
M  END
> <Name>
1,4-Benzenediol

> <Source>
DSSTox2DMolFile

> <Tox>
3.470

> <CAS>
123-31-9

$$$$

  CDK

  4  3  0  0  0  0  0  0  0  0999 V2000
    0.0000   -0.0000    0.0000 C   0  0  0  0  0  0  0  0  0  0  0  0
    1.1513   -0.6638    0.0000 C   0  0  0  0  0  0  0  0  0  0  0  0
    2.3061   -0.0000    0.0000 C   0  0  0  0  0  0  0  0  0  0  0  0
    3.4575   -0.6638    0.0000 O   0  0  0  0  0  0  0  0  0  0  0  0
  1  2  1  0  0  0  0 
  2  3  1  0  0  0  0 
  3  4  2  0  0  0  0 
M  END
> <Name>
Propionaldehyde

> <Source>
DSSTox2DMolFile

> <Tox>
2.515

> <CAS>
123-38-6

$$$$

  CDK

  6  5  0  0  0  0  0  0  0  0999 V2000
    2.3042   -1.9954    0.0000 C   0  0  0  0  0  0  0  0  0  0  0  0
    1.1521   -1.3318    0.0000 C   0  0  0  0  0  0  0  0  0  0  0  0
    3.4563   -1.3318    0.0000 C   0  0  0  0  0  0  0  0  0  0  0  0
    0.0000   -1.9954    0.0000 O   0  0  0  0  0  0  0  0  0  0  0  0
    3.4563   -0.0000    0.0000 C   0  0  0  0  0  0  0  0  0  0  0  0
    4.6084   -1.9954    0.0000 C   0  0  0  0  0  0  0  0  0  0  0  0
  1  2  1  0  0  0  0 
  1  3  1  0  0  0  0 
  2  4  1  0  0  0  0 
  3  5  1  0  0  0  0 
  3  6  1  0  0  0  0 
M  END
> <Name>
Isopentyl alcohol (8CI)

> <Source>
DSSTox2DMolFile

> <Tox>
1.964

> <CAS>
123-51-3

$$$$

  CDK

 10  9  0  0  0  0  0  0  0  0999 V2000
    0.0000   -2.3050    0.0000 C   0  0  0  0  0  0  0  0  0  0  0  0
    0.6620   -1.1565    0.0000 C   0  0  0  0  0  0  0  0  0  0  0  0
    1.9940   -1.1565    0.0000 C   0  0  0  0  0  0  0  0  0  0  0  0
    2.6560   -0.0000    0.0000 C   0  0  0  0  0  0  0  0  0  0  0  0
    3.9879   -0.0000    0.0000 C   0  0  0  0  0  0  0  0  0  0  0  0
    4.6499   -1.1565    0.0000 C   0  0  0  0  0  0  0  0  0  0  0  0
    3.9879   -2.3050    0.0000 O   0  0  0  0  0  0  0  0  0  0  0  0
    5.9819   -1.1565    0.0000 O   0  0  0  0  0  0  0  0  0  0  0  0
    6.6439   -2.3050    0.0000 C   0  0  0  0  0  0  0  0  0  0  0  0
    7.9759   -2.3050    0.0000 C   0  0  0  0  0  0  0  0  0  0  0  0
  1  2  1  0  0  0  0 
  2  3  1  0  0  0  0 
  3  4  1  0  0  0  0 
  4  5  1  0  0  0  0 
  5  6  1  0  0  0  0 
  6  7  2  0  0  0  0 
  6  8  1  0  0  0  0 
  8  9  1  0  0  0  0 
  9 10  1  0  0  0  0 
M  END
> <Name>
Hexanoic acid, ethyl ester

> <Source>
DSSTox2DMolFile

> <Tox>
3.064

> <CAS>
123-66-0

$$$$

  CDK

 11 10  0  0  0  0  0  0  0  0999 V2000
   -0.8011    0.8842   -0.2566 C   0  0  0  0  0  0  0  0  0  0  0  0
    0.4650    0.2879   -0.8308 C   0  0  0  0  0  0  0  0  0  0  0  0
   -0.9901    2.0308    0.0994 O   0  0  0  0  0  0  0  0  0  0  0  0
   -1.8146   -0.0231   -0.1601 O   0  0  0  0  0  0  0  0  0  0  0  0
    1.5800    0.2944    0.2042 C   0  0  0  0  0  0  0  0  0  0  0  0
   -3.0692    0.4137    0.3615 C   0  0  0  0  0  0  0  0  0  0  0  0
    2.8647   -0.2698   -0.3813 C   0  0  0  0  0  0  0  0  0  0  0  0
   -4.0414   -0.7179    0.3542 C   0  0  0  0  0  0  0  0  0  0  0  0
    3.9847   -0.2712    0.6469 C   0  0  0  0  0  0  0  0  0  0  0  0
   -3.8292   -1.9421   -0.1118 C   0  0  0  0  0  0  0  0  0  0  0  0
    5.2651   -0.8293    0.0681 C   0  0  0  0  0  0  0  0  0  0  0  0
  1  2  1  0  0  0  0 
  1  3  2  0  0  0  0 
  1  4  1  0  0  0  0 
  2  5  1  0  0  0  0 
  4  6  1  0  0  0  0 
  5  7  1  0  0  0  0 
  6  8  1  0  0  0  0 
  7  9  1  0  0  0  0 
  8 10  2  0  0  0  0 
  9 11  1  0  0  0  0 
M  END
> <Name>
Hexanoic acid, 2-propenyl ester

> <Source>
DougDB3DMolFile

> <Tox>
3.213

> <CAS>
123-68-2

$$$$

  CDK

  5  4  0  0  0  0  0  0  0  0999 V2000
    0.0000   -0.6638    0.0000 C   0  0  0  0  0  0  0  0  0  0  0  0
    1.1525   -0.0000    0.0000 C   0  0  0  0  0  0  0  0  0  0  0  0
    2.3050   -0.6638    0.0000 C   0  0  0  0  0  0  0  0  0  0  0  0
    3.4575   -0.0000    0.0000 C   0  0  0  0  0  0  0  0  0  0  0  0
    4.6099   -0.6638    0.0000 O   0  0  0  0  0  0  0  0  0  0  0  0
  1  2  1  0  0  0  0 
  2  3  1  0  0  0  0 
  3  4  1  0  0  0  0 
  4  5  2  0  0  0  0 
M  END
> <Name>
Butyraldehyde

> <Source>
DSSTox2DMolFile

> <Tox>
2.620

> <CAS>
123-72-8

$$$$

  CDK

  5  4  0  0  0  0  0  0  0  0999 V2000
    0.0000   -0.6638    0.0000 C   0  0  0  0  0  0  0  0  0  0  0  0
    1.1525   -0.0000    0.0000 C   0  0  0  0  0  0  0  0  0  0  0  0
    2.3050   -0.6638    0.0000 C   0  0  0  0  0  0  0  0  0  0  0  0
    3.4575   -0.0000    0.0000 C   0  0  0  0  0  0  0  0  0  0  0  0
    4.6099   -0.6638    0.0000 O   0  0  0  0  0  0  0  0  0  0  0  0
  1  2  1  0  0  0  0 
  2  3  2  0  0  0  0 
  3  4  1  0  0  0  0 
  4  5  2  0  0  0  0 
M  END
> <Name>
Crotonaldehyde, (E)-

> <Source>
DSSTox2DMolFile

> <Tox>
4.060

> <CAS>
123-73-9

$$$$

  CDK

  8  7  0  0  0  0  0  0  0  0999 V2000
    3.9913   -0.0000    0.0000 C   0  0  0  0  0  0  0  0  0  0  0  0
    4.6555   -1.1549    0.0000 C   0  0  0  0  0  0  0  0  0  0  0  0
    5.9839   -1.1549    0.0000 O   0  0  0  0  0  0  0  0  0  0  0  0
    3.9913   -2.3038    0.0000 O   0  0  0  0  0  0  0  0  0  0  0  0
    2.6569   -2.3038    0.0000 C   0  0  0  0  0  0  0  0  0  0  0  0
    1.9926   -1.1549    0.0000 C   0  0  0  0  0  0  0  0  0  0  0  0
    0.6642   -1.1549    0.0000 C   0  0  0  0  0  0  0  0  0  0  0  0
    0.0000   -0.0000    0.0000 C   0  0  0  0  0  0  0  0  0  0  0  0
  1  2  1  0  0  0  0 
  2  3  2  0  0  0  0 
  2  4  1  0  0  0  0 
  4  5  1  0  0  0  0 
  5  6  1  0  0  0  0 
  6  7  1  0  0  0  0 
  7  8  1  0  0  0  0 
M  END
> <Name>
Acetic acid, butyl ester

> <Source>
DSSTox2DMolFile

> <Tox>
2.514

> <CAS>
123-86-4

$$$$

  CDK

  9  8  0  0  0  0  0  0  0  0999 V2000
    0.0000   -0.0000    0.0000 C   0  0  0  0  0  0  0  0  0  0  0  0
    1.1411   -0.6750    0.0000 C   0  0  0  0  0  0  0  0  0  0  0  0
    2.2982   -0.0000    0.0000 C   0  0  0  0  0  0  0  0  0  0  0  0
    1.1411   -1.9929    0.0000 O   0  0  0  0  0  0  0  0  0  0  0  0
    3.4554   -0.6750    0.0000 C   0  0  0  0  0  0  0  0  0  0  0  0
    4.6126   -0.0000    0.0000 C   0  0  0  0  0  0  0  0  0  0  0  0
    5.7376   -0.6750    0.0000 C   0  0  0  0  0  0  0  0  0  0  0  0
    6.8947   -0.0000    0.0000 C   0  0  0  0  0  0  0  0  0  0  0  0
    8.0358   -0.6750    0.0000 C   0  0  0  0  0  0  0  0  0  0  0  0
  1  2  1  0  0  0  0 
  2  3  1  0  0  0  0 
  2  4  1  0  0  0  0 
  3  5  1  0  0  0  0 
  5  6  1  0  0  0  0 
  6  7  1  0  0  0  0 
  7  8  1  0  0  0  0 
  8  9  1  0  0  0  0 
M  END
> <Name>
(1)-Octan-2-ol

> <Source>
DSSTox2DMolFile

> <Tox>
3.000

> <CAS>
123-96-6

$$$$

  CDK

 10  9  0  0  0  0  0  0  0  0999 V2000
    0.0000   -1.3318    0.0000 O   0  0  0  0  0  0  0  0  0  0  0  0
    1.1542   -1.9936    0.0000 C   0  0  0  0  0  0  0  0  0  0  0  0
    2.3084   -1.3318    0.0000 C   0  0  0  0  0  0  0  0  0  0  0  0
    1.1542   -3.3254    0.0000 O   0  0  0  0  0  0  0  0  0  0  0  0
    3.4626   -1.9936    0.0000 C   0  0  0  0  0  0  0  0  0  0  0  0
    4.6087   -1.3318    0.0000 C   0  0  0  0  0  0  0  0  0  0  0  0
    5.7629   -1.9936    0.0000 C   0  0  0  0  0  0  0  0  0  0  0  0
    6.9171   -1.3318    0.0000 C   0  0  0  0  0  0  0  0  0  0  0  0
    8.0713   -1.9936    0.0000 O   0  0  0  0  0  0  0  0  0  0  0  0
    6.9171   -0.0000    0.0000 O   0  0  0  0  0  0  0  0  0  0  0  0
  1  2  1  0  0  0  0 
  2  3  1  0  0  0  0 
  2  4  2  0  0  0  0 
  3  5  1  0  0  0  0 
  5  6  1  0  0  0  0 
  6  7  1  0  0  0  0 
  7  8  1  0  0  0  0 
  8  9  1  0  0  0  0 
  8 10  2  0  0  0  0 
M  END
> <Name>
Hexanedioic acid

> <Source>
DSSTox2DMolFile

> <Tox>
2.394

> <CAS>
124-04-9

$$$$

  CDK

 10  9  0  0  0  0  0  0  0  0999 V2000
    0.0000   -1.9996    0.0000 C   0  0  0  0  0  0  0  0  0  0  0  0
    1.1518   -1.3361    0.0000 C   0  0  0  0  0  0  0  0  0  0  0  0
    2.3036   -1.9996    0.0000 C   0  0  0  0  0  0  0  0  0  0  0  0
    3.4555   -1.3361    0.0000 C   0  0  0  0  0  0  0  0  0  0  0  0
    4.6073   -1.9996    0.0000 C   0  0  0  0  0  0  0  0  0  0  0  0
    5.7591   -1.3361    0.0000 C   0  0  0  0  0  0  0  0  0  0  0  0
    6.9109   -1.9996    0.0000 C   0  0  0  0  0  0  0  0  0  0  0  0
    8.0628   -1.3361    0.0000 C   0  0  0  0  0  0  0  0  0  0  0  0
    9.2146   -1.9996    0.0000 O   0  0  0  0  0  0  0  0  0  0  0  0
    8.0628   -0.0000    0.0000 O   0  0  0  0  0  0  0  0  0  0  0  0
  1  2  1  0  0  0  0 
  2  3  1  0  0  0  0 
  3  4  1  0  0  0  0 
  4  5  1  0  0  0  0 
  5  6  1  0  0  0  0 
  6  7  1  0  0  0  0 
  7  8  1  0  0  0  0 
  8  9  1  0  0  0  0 
  8 10  2  0  0  0  0 
M  END
> <Name>
Octanoic acid

> <Source>
DSSTox2DMolFile

> <Tox>
3.081

> <CAS>
124-07-2

$$$$

  CDK

  9  8  0  0  0  0  0  0  0  0999 V2000
    4.3394    0.4988    0.0000 C   0  0  0  0  0  0  0  0  0  0  0  0
    3.4915    0.0000    0.0000 C   0  0  0  0  0  0  0  0  0  0  0  0
    5.2373    0.0000    0.0000 C   0  0  0  0  0  0  0  0  0  0  0  0
    2.6436    0.4988    0.0000 C   0  0  0  0  0  0  0  0  0  0  0  0
    6.0852    0.4988    0.0000 C   0  0  0  0  0  0  0  0  0  0  0  0
    1.7458    0.0000    0.0000 C   0  0  0  0  0  0  0  0  0  0  0  0
    6.9331    0.0000    0.0000 C   0  0  0  0  0  0  0  0  0  0  0  0
    0.8479    0.4988    0.0000 C   0  0  0  0  0  0  0  0  0  0  0  0
    0.0000    0.9976    0.0000 N   0  0  0  0  0  0  0  0  0  0  0  0
  1  2  1  0  0  0  0 
  1  3  1  0  0  0  0 
  2  4  1  0  0  0  0 
  3  5  1  0  0  0  0 
  4  6  1  0  0  0  0 
  5  7  1  0  0  0  0 
  6  8  1  0  0  0  0 
  8  9  3  0  0  0  0 
M  END
> <Name>
Octanenitrile

> <Source>
NIST2DMolFile

> <Tox>
3.283

> <CAS>
124-12-9

$$$$

  CDK

 10  9  0  0  0  0  0  0  0  0999 V2000
    0.0000   -0.6638    0.0000 C   0  0  0  0  0  0  0  0  0  0  0  0
    1.1513   -0.0000    0.0000 C   0  0  0  0  0  0  0  0  0  0  0  0
    2.3027   -0.6638    0.0000 C   0  0  0  0  0  0  0  0  0  0  0  0
    3.4540   -0.0000    0.0000 C   0  0  0  0  0  0  0  0  0  0  0  0
    4.6053   -0.6638    0.0000 C   0  0  0  0  0  0  0  0  0  0  0  0
    5.7670   -0.0000    0.0000 C   0  0  0  0  0  0  0  0  0  0  0  0
    6.9184   -0.6638    0.0000 C   0  0  0  0  0  0  0  0  0  0  0  0
    8.0697   -0.0000    0.0000 C   0  0  0  0  0  0  0  0  0  0  0  0
    9.2210   -0.6638    0.0000 C   0  0  0  0  0  0  0  0  0  0  0  0
   10.3724   -0.0000    0.0000 O   0  0  0  0  0  0  0  0  0  0  0  0
  1  2  1  0  0  0  0 
  2  3  1  0  0  0  0 
  3  4  1  0  0  0  0 
  4  5  1  0  0  0  0 
  5  6  1  0  0  0  0 
  6  7  1  0  0  0  0 
  7  8  1  0  0  0  0 
  8  9  1  0  0  0  0 
  9 10  2  0  0  0  0 
M  END
> <Name>
1-Nonanal

> <Source>
DSSTox2DMolFile

> <Tox>
3.808

> <CAS>
124-19-6

$$$$

  CDK

  6  5  0  0  0  0  0  0  0  0999 V2000
    0.4982   -1.1520    0.0000 C   0  0  0  0  0  0  0  0  0  0  0  0
    1.1520   -2.3075    0.0000 C   0  0  0  0  0  0  0  0  0  0  0  0
    1.1520   -0.0000    0.0000 O   0  0  0  0  0  0  0  0  0  0  0  0
    2.3075   -1.6329    0.0000 C   0  0  0  0  0  0  0  0  0  0  0  0
    1.8266   -3.4596    0.0000 N   0  0  0  0  0  0  0  0  0  0  0  0
    0.0000   -2.9614    0.0000 C   0  0  0  0  0  0  0  0  0  0  0  0
  1  2  1  0  0  0  0 
  1  3  1  0  0  0  0 
  2  4  1  0  0  0  0 
  2  5  1  0  0  0  0 
  2  6  1  0  0  0  0 
M  END
> <Name>
1-Propanol, 2-amino-2-methyl-

> <Source>
DSSTox2DMolFile

> <Tox>
1.069

> <CAS>
124-68-5

$$$$

  CDK

 11 12  0  0  0  0  0  0  0  0999 V2000
    2.8218    1.9127    1.9197 C   0  0  0  0  0  0  0  0  0  0  0  0
    3.6517    1.0243    1.0346 C   0  0  0  0  0  0  0  0  0  0  0  0
    3.2636    3.4146    2.0268 C   0  0  0  0  0  0  0  0  0  0  0  0
    2.7087    1.4560    3.4180 C   0  0  0  0  0  0  0  0  0  0  0  0
    1.3545    2.0738    1.4396 C   0  0  0  0  0  0  0  0  0  0  0  0
    4.6456    3.6663    2.6118 C   0  0  0  0  0  0  0  0  0  0  0  0
    3.2046    4.1595    0.6961 C   0  0  0  0  0  0  0  0  0  0  0  0
    2.0928    3.7730    2.9961 C   0  0  0  0  0  0  0  0  0  0  0  0
    3.8529    0.8625    3.9649 O   0  0  0  0  0  0  0  0  0  0  0  0
    2.2778    2.7655    4.1448 C   0  0  0  0  0  0  0  0  0  0  0  0
    0.8510    3.3129    2.2058 C   0  0  0  0  0  0  0  0  0  0  0  0
  1  2  1  0  0  0  0 
  3  1  1  0  0  0  0 
  1  4  1  0  0  0  0 
  1  5  1  0  0  0  0 
  3  6  1  0  0  0  0 
  3  7  1  0  0  0  0 
  8  3  1  0  0  0  0 
  4  9  1  0  0  0  0 
  4 10  1  0  0  0  0 
  5 11  1  0  0  0  0 
 10  8  1  0  0  0  0 
 11  8  1  0  0  0  0 
M  END
> <Name>
Bicyclo(2.2.1)heptan-2-ol, 1,7,7-trimethyl-, (1R,2R,4R)-rel-

> <Source>
NIST3DMolFile

> <Tox>
3.150

> <CAS>
124-76-5

$$$$

  CDK

  5  4  0  0  0  0  0  0  0  0999 V2000
    0.0000   -0.0000    0.0000 N   0  0  0  0  0  0  0  0  0  0  0  0
    1.1416   -0.6587    0.0000 C   0  0  0  0  0  0  0  0  0  0  0  0
    2.3073   -1.3313    0.0000 C   0  0  0  0  0  0  0  0  0  0  0  0
    2.3073   -2.6625    0.0000 C   0  0  0  0  0  0  0  0  0  0  0  0
    3.4489   -0.6587    0.0000 C   0  0  0  0  0  0  0  0  0  0  0  0
  1  2  3  0  0  0  0 
  2  3  1  0  0  0  0 
  3  4  2  0  0  0  0 
  3  5  1  0  0  0  0 
M  END
> <Name>
2-Propenenitrile, 2-methyl-

> <Source>
DSSTox2DMolFile

> <Tox>
1.347

> <CAS>
126-98-7

$$$$

  CDK

  5  4  0  0  0  0  0  0  0  0999 V2000
    0.0000   -1.3438    0.0000 Cl  0  0  0  0  0  0  0  0  0  0  0  0
    1.1503   -2.0001    0.0000 C   0  0  0  0  0  0  0  0  0  0  0  0
    2.3041   -1.3438    0.0000 C   0  0  0  0  0  0  0  0  0  0  0  0
    2.3041   -0.0000    0.0000 O   0  0  0  0  0  0  0  0  0  0  0  0
    3.4544   -2.0001    0.0000 C   0  0  0  0  0  0  0  0  0  0  0  0
  1  2  1  0  0  0  0 
  2  3  1  0  0  0  0 
  3  4  1  0  0  0  0 
  3  5  1  0  0  0  0 
M  END
> <Name>
2-Propanol, 1-chloro-

> <Source>
DSSTox2DMolFile

> <Tox>
1.508

> <CAS>
127-00-4

$$$$

  CDK

  5  4  0  0  0  0  0  0  0  0999 V2000
    3.4567   -1.9945    0.0000 C   0  0  0  0  0  0  0  0  0  0  0  0
    2.3056   -1.3308    0.0000 C   0  0  0  0  0  0  0  0  0  0  0  0
    1.1511   -1.9945    0.0000 N   0  0  0  0  0  0  0  0  0  0  0  0
    2.3056   -0.0000    0.0000 C   0  0  0  0  0  0  0  0  0  0  0  0
    0.0000   -1.3308    0.0000 O   0  0  0  0  0  0  0  0  0  0  0  0
  1  2  1  0  0  0  0 
  2  3  2  0  0  0  0 
  2  4  1  0  0  0  0 
  3  5  1  0  0  0  0 
M  END
> <Name>
2-Propanone, oxime

> <Source>
DSSTox2DMolFile

> <Tox>
1.752

> <CAS>
127-06-0

$$$$

  CDK

  6  5  0  0  0  0  0  0  0  0999 V2000
    2.3053   -1.3272    0.0000 C   0  0  0  0  0  0  0  0  0  0  0  0
    1.1509   -2.0012    0.0000 N   0  0  0  0  0  0  0  0  0  0  0  0
    2.3053   -0.0000    0.0000 O   0  0  0  0  0  0  0  0  0  0  0  0
    3.4563   -2.0012    0.0000 C   0  0  0  0  0  0  0  0  0  0  0  0
    1.1509   -3.3284    0.0000 C   0  0  0  0  0  0  0  0  0  0  0  0
    0.0000   -1.3445    0.0000 C   0  0  0  0  0  0  0  0  0  0  0  0
  1  2  1  0  0  0  0 
  1  3  2  0  0  0  0 
  1  4  1  0  0  0  0 
  2  5  1  0  0  0  0 
  2  6  1  0  0  0  0 
M  END
> <Name>
Acetamide, N,N-dimethyl-

> <Source>
DSSTox2DMolFile

> <Tox>
1.051

> <CAS>
127-19-5

$$$$

  CDK

 16 16  0  0  0  0  0  0  0  0999 V2000
    3.8114   -1.1518    0.0000 O   0  0  0  0  0  0  0  0  0  0  0  0
    3.1449   -2.3037    0.0000 C   0  0  0  0  0  0  0  0  0  0  0  0
    3.8114   -3.4555    0.0000 C   0  0  0  0  0  0  0  0  0  0  0  0
    1.8183   -2.3037    0.0000 C   0  0  0  0  0  0  0  0  0  0  0  0
    3.1449   -4.6073    0.0000 C   0  0  0  0  0  0  0  0  0  0  0  0
    5.1380   -3.4555    0.0000 C   0  0  0  0  0  0  0  0  0  0  0  0
    1.1518   -3.4555    0.0000 C   0  0  0  0  0  0  0  0  0  0  0  0
    1.1518   -1.1518    0.0000 C   0  0  0  0  0  0  0  0  0  0  0  0
    1.8183   -4.6073    0.0000 C   0  0  0  0  0  0  0  0  0  0  0  0
    5.1380   -2.1290    0.0000 C   0  0  0  0  0  0  0  0  0  0  0  0
    6.4710   -3.4555    0.0000 C   0  0  0  0  0  0  0  0  0  0  0  0
    5.1380   -4.7885    0.0000 C   0  0  0  0  0  0  0  0  0  0  0  0
    0.4853   -0.0000    0.0000 C   0  0  0  0  0  0  0  0  0  0  0  0
    2.3037   -0.4853    0.0000 C   0  0  0  0  0  0  0  0  0  0  0  0
    0.0000   -1.8183    0.0000 C   0  0  0  0  0  0  0  0  0  0  0  0
    1.1518   -5.7592    0.0000 C   0  0  0  0  0  0  0  0  0  0  0  0
  1  2  1  0  0  0  0 
  2  3  2  0  0  0  0 
  2  4  1  0  0  0  0 
  3  5  1  0  0  0  0 
  3  6  1  0  0  0  0 
  7  4  2  0  0  0  0 
  4  8  1  0  0  0  0 
  5  9  2  0  0  0  0 
  6 10  1  0  0  0  0 
  6 11  1  0  0  0  0 
  6 12  1  0  0  0  0 
  9  7  1  0  0  0  0 
  8 13  1  0  0  0  0 
  8 14  1  0  0  0  0 
  8 15  1  0  0  0  0 
  9 16  1  0  0  0  0 
M  END
> <Name>
Phenol, 2,6-bis(1,1-dimethylethyl)-4-methyl-

> <Source>
DSSTox2DMolFile

> <Tox>
4.790

> <CAS>
128-37-0

$$$$

  CDK

 12 13  0  0  0  0  0  0  0  0999 V2000
    3.0163    3.2199    1.6094 C   0  0  0  0  0  0  0  0  0  0  0  0
    3.7355    4.0958    1.1616 O   0  0  0  0  0  0  0  0  0  0  0  0
    3.3500    2.4677    2.8509 C   0  0  0  0  0  0  0  0  0  0  0  0
    1.7510    2.8602    0.9188 C   0  0  0  0  0  0  0  0  0  0  0  0
    2.4868    1.4718    3.3368 C   0  0  0  0  0  0  0  0  0  0  0  0
    4.5295    2.7518    3.5385 C   0  0  0  0  0  0  0  0  0  0  0  0
    0.9309    1.9158    1.3807 C   0  0  0  0  0  0  0  0  0  0  0  0
    1.2209    1.1501    2.6207 C   0  0  0  0  0  0  0  0  0  0  0  0
    2.8196    0.7790    4.5004 C   0  0  0  0  0  0  0  0  0  0  0  0
    4.8530    2.0544    4.6995 C   0  0  0  0  0  0  0  0  0  0  0  0
    0.4429    0.2999    3.0163 O   0  0  0  0  0  0  0  0  0  0  0  0
    4.0000    1.0700    5.1792 C   0  0  0  0  0  0  0  0  0  0  0  0
  1  2  2  0  0  0  0 
  1  3  1  0  0  0  0 
  4  1  1  0  0  0  0 
  5  3  2  0  0  0  0 
  3  6  1  0  0  0  0 
  7  4  2  0  0  0  0 
  5  8  1  0  0  0  0 
  9  5  1  0  0  0  0 
  6 10  2  0  0  0  0 
  8  7  1  0  0  0  0 
  8 11  2  0  0  0  0 
 12  9  2  0  0  0  0 
 10 12  1  0  0  0  0 
M  END
> <Name>
1,4-Naphthalenedione

> <Source>
NIST3DMolFile

> <Tox>
5.000

> <CAS>
130-15-4

$$$$

  CDK

 18 18  0  0  0  0  0  0  0  0999 V2000
    2.2884   -1.9983    0.0000 C   0  0  0  0  0  0  0  0  0  0  0  0
    2.2884   -3.3278    0.0000 C   0  0  0  0  0  0  0  0  0  0  0  0
    3.4406   -1.3295    0.0000 C   0  0  0  0  0  0  0  0  0  0  0  0
    1.1361   -1.3295    0.0000 C   0  0  0  0  0  0  0  0  0  0  0  0
    3.4406   -3.9885    0.0000 C   0  0  0  0  0  0  0  0  0  0  0  0
    1.1361   -3.9885    0.0000 C   0  0  0  0  0  0  0  0  0  0  0  0
    3.4406   -0.0000    0.0000 O   0  0  0  0  0  0  0  0  0  0  0  0
    4.6009   -1.9983    0.0000 O   0  0  0  0  0  0  0  0  0  0  0  0
    0.0000   -1.9983    0.0000 C   0  0  0  0  0  0  0  0  0  0  0  0
    4.6009   -3.3278    0.0000 O   0  0  0  0  0  0  0  0  0  0  0  0
    3.4406   -5.3181    0.0000 O   0  0  0  0  0  0  0  0  0  0  0  0
    0.0000   -3.3278    0.0000 C   0  0  0  0  0  0  0  0  0  0  0  0
    5.7532   -1.3295    0.0000 C   0  0  0  0  0  0  0  0  0  0  0  0
    4.6009   -5.9868    0.0000 C   0  0  0  0  0  0  0  0  0  0  0  0
    6.9054   -1.9983    0.0000 C   0  0  0  0  0  0  0  0  0  0  0  0
    4.6009   -7.3163    0.0000 C   0  0  0  0  0  0  0  0  0  0  0  0
    8.0577   -1.3295    0.0000 C   0  0  0  0  0  0  0  0  0  0  0  0
    5.7532   -7.9771    0.0000 C   0  0  0  0  0  0  0  0  0  0  0  0
  1  2  2  0  0  0  0 
  1  3  1  0  0  0  0 
  1  4  1  0  0  0  0 
  2  5  1  0  0  0  0 
  2  6  1  0  0  0  0 
  3  7  2  0  0  0  0 
  3  8  1  0  0  0  0 
  4  9  2  0  0  0  0 
  5 10  2  0  0  0  0 
  5 11  1  0  0  0  0 
  6 12  2  0  0  0  0 
  8 13  1  0  0  0  0 
  9 12  1  0  0  0  0 
 11 14  1  0  0  0  0 
 13 15  1  0  0  0  0 
 14 16  1  0  0  0  0 
 15 17  1  0  0  0  0 
 16 18  1  0  0  0  0 
M  END
> <Name>
dipropyl benzene-1,2-dicarboxylate

> <Source>
DSSTox2DMolFile

> <Tox>
3.980

> <CAS>
131-16-8

$$$$

  CDK

 18 19  0  0  0  0  0  0  0  0999 V2000
    3.4058    3.0552    0.0000 O   0  0  0  0  0  0  0  0  0  0  0  0
    3.4058    2.0034    0.0000 C   0  0  0  0  0  0  0  0  0  0  0  0
    2.5544    1.5026    0.0000 C   0  0  0  0  0  0  0  0  0  0  0  0
    4.3074    1.5527    0.0000 C   0  0  0  0  0  0  0  0  0  0  0  0
    1.7029    2.0034    0.0000 C   0  0  0  0  0  0  0  0  0  0  0  0
    2.5544    0.5009    0.0000 C   0  0  0  0  0  0  0  0  0  0  0  0
    5.1589    2.0535    0.0000 C   0  0  0  0  0  0  0  0  0  0  0  0
    4.3074    0.5509    0.0000 C   0  0  0  0  0  0  0  0  0  0  0  0
    1.7029    3.0052    0.0000 O   0  0  0  0  0  0  0  0  0  0  0  0
    0.8515    1.5026    0.0000 C   0  0  0  0  0  0  0  0  0  0  0  0
    1.7029    0.0000    0.0000 C   0  0  0  0  0  0  0  0  0  0  0  0
    5.1589    3.0052    0.0000 O   0  0  0  0  0  0  0  0  0  0  0  0
    6.0604    1.5026    0.0000 C   0  0  0  0  0  0  0  0  0  0  0  0
    5.2089    0.0000    0.0000 C   0  0  0  0  0  0  0  0  0  0  0  0
    0.8515    0.5009    0.0000 C   0  0  0  0  0  0  0  0  0  0  0  0
    6.0604    0.5509    0.0000 C   0  0  0  0  0  0  0  0  0  0  0  0
    0.0000    0.0000    0.0000 O   0  0  0  0  0  0  0  0  0  0  0  0
    6.9119    0.0501    0.0000 O   0  0  0  0  0  0  0  0  0  0  0  0
  1  2  2  0  0  0  0 
  2  3  1  0  0  0  0 
  2  4  1  0  0  0  0 
  5  3  2  0  0  0  0 
  3  6  1  0  0  0  0 
  4  7  2  0  0  0  0 
  8  4  1  0  0  0  0 
  5  9  1  0  0  0  0 
 10  5  1  0  0  0  0 
  6 11  2  0  0  0  0 
  7 12  1  0  0  0  0 
  7 13  1  0  0  0  0 
 14  8  2  0  0  0  0 
 15 10  2  0  0  0  0 
 11 15  1  0  0  0  0 
 13 16  2  0  0  0  0 
 16 14  1  0  0  0  0 
 15 17  1  0  0  0  0 
 16 18  1  0  0  0  0 
M  END
> <Name>
Benzophenone, 2,2',4,4'-tetrahydroxy-

> <Source>
NIST2DMolFile

> <Tox>
3.960

> <CAS>
131-55-5

$$$$

  CDK

 16 17  0  0  0  0  0  0  0  0999 V2000
    3.4581   -1.9991    0.0000 C   0  0  0  0  0  0  0  0  0  0  0  0
    4.6028   -2.6601    0.0000 C   0  0  0  0  0  0  0  0  0  0  0  0
    2.3054   -2.6601    0.0000 C   0  0  0  0  0  0  0  0  0  0  0  0
    3.4581   -0.6691    0.0000 C   0  0  0  0  0  0  0  0  0  0  0  0
    4.6028   -3.9901    0.0000 O   0  0  0  0  0  0  0  0  0  0  0  0
    5.7555   -1.9991    0.0000 C   0  0  0  0  0  0  0  0  0  0  0  0
    1.1527   -1.9991    0.0000 C   0  0  0  0  0  0  0  0  0  0  0  0
    2.3054   -3.9901    0.0000 O   0  0  0  0  0  0  0  0  0  0  0  0
    2.3054   -0.0000    0.0000 C   0  0  0  0  0  0  0  0  0  0  0  0
    5.7555   -0.6691    0.0000 C   0  0  0  0  0  0  0  0  0  0  0  0
    6.9082   -2.6601    0.0000 C   0  0  0  0  0  0  0  0  0  0  0  0
    1.1527   -0.6691    0.0000 C   0  0  0  0  0  0  0  0  0  0  0  0
    6.9082   -0.0000    0.0000 C   0  0  0  0  0  0  0  0  0  0  0  0
    8.0609   -1.9991    0.0000 C   0  0  0  0  0  0  0  0  0  0  0  0
    0.0000   -0.0000    0.0000 O   0  0  0  0  0  0  0  0  0  0  0  0
    8.0609   -0.6691    0.0000 C   0  0  0  0  0  0  0  0  0  0  0  0
  1  2  1  0  0  0  0 
  1  3  1  0  0  0  0 
  1  4  2  0  0  0  0 
  2  5  2  0  0  0  0 
  2  6  1  0  0  0  0 
  3  7  2  0  0  0  0 
  3  8  1  0  0  0  0 
  9  4  1  0  0  0  0 
  6 10  1  0  0  0  0 
  6 11  2  0  0  0  0 
  7 12  1  0  0  0  0 
 12  9  2  0  0  0  0 
 10 13  2  0  0  0  0 
 14 11  1  0  0  0  0 
 12 15  1  0  0  0  0 
 13 16  1  0  0  0  0 
 16 14  2  0  0  0  0 
M  END
> <Name>
Methanone, (2,4-dihydroxyphenyl)phenyl-

> <Source>
DSSTox2DMolFile

> <Tox>
4.370

> <CAS>
131-56-6

$$$$

  CDK

 17 18  0  0  0  0  0  0  0  0999 V2000
    3.4581   -3.3291    0.0000 C   0  0  0  0  0  0  0  0  0  0  0  0
    4.6028   -3.9901    0.0000 C   0  0  0  0  0  0  0  0  0  0  0  0
    2.3054   -3.9901    0.0000 C   0  0  0  0  0  0  0  0  0  0  0  0
    3.4581   -1.9991    0.0000 C   0  0  0  0  0  0  0  0  0  0  0  0
    4.6028   -5.3202    0.0000 O   0  0  0  0  0  0  0  0  0  0  0  0
    5.7555   -3.3291    0.0000 C   0  0  0  0  0  0  0  0  0  0  0  0
    1.1527   -3.3291    0.0000 C   0  0  0  0  0  0  0  0  0  0  0  0
    2.3054   -5.3202    0.0000 O   0  0  0  0  0  0  0  0  0  0  0  0
    2.3054   -1.3300    0.0000 C   0  0  0  0  0  0  0  0  0  0  0  0
    5.7555   -1.9991    0.0000 C   0  0  0  0  0  0  0  0  0  0  0  0
    6.9082   -3.9901    0.0000 C   0  0  0  0  0  0  0  0  0  0  0  0
    1.1527   -1.9991    0.0000 C   0  0  0  0  0  0  0  0  0  0  0  0
    6.9082   -1.3300    0.0000 C   0  0  0  0  0  0  0  0  0  0  0  0
    8.0609   -3.3291    0.0000 C   0  0  0  0  0  0  0  0  0  0  0  0
    0.0000   -1.3300    0.0000 O   0  0  0  0  0  0  0  0  0  0  0  0
    8.0609   -1.9991    0.0000 C   0  0  0  0  0  0  0  0  0  0  0  0
    0.0000   -0.0000    0.0000 C   0  0  0  0  0  0  0  0  0  0  0  0
  1  2  1  0  0  0  0 
  1  3  1  0  0  0  0 
  1  4  2  0  0  0  0 
  2  5  2  0  0  0  0 
  2  6  1  0  0  0  0 
  3  7  2  0  0  0  0 
  3  8  1  0  0  0  0 
  9  4  1  0  0  0  0 
  6 10  1  0  0  0  0 
  6 11  2  0  0  0  0 
  7 12  1  0  0  0  0 
 12  9  2  0  0  0  0 
 10 13  2  0  0  0  0 
 14 11  1  0  0  0  0 
 12 15  1  0  0  0  0 
 13 16  1  0  0  0  0 
 16 14  2  0  0  0  0 
 15 17  1  0  0  0  0 
M  END
> <Name>
Methanone, (2-hydroxy-4-methoxyphenyl)phenyl-

> <Source>
DSSTox2DMolFile

> <Tox>
4.420

> <CAS>
131-57-7

$$$$

  CDK

 15 16  0  0  0  0  0  0  0  0999 V2000
    0.0000    0.0000    0.0000 O   0  0  0  0  0  0  0  0  0  0  0  0
    0.6200   -1.0200    0.1200 C   0  0  0  0  0  0  0  0  0  0  0  0
    2.1000   -1.0000    0.3600 C   0  0  0  0  0  0  0  0  0  0  0  0
   -0.0600   -2.3400    0.0400 C   0  0  0  0  0  0  0  0  0  0  0  0
    2.6400   -1.4000    1.6200 C   0  0  0  0  0  0  0  0  0  0  0  0
    2.9600   -0.6000   -0.6600 C   0  0  0  0  0  0  0  0  0  0  0  0
    0.7000   -3.5400    0.0400 C   0  0  0  0  0  0  0  0  0  0  0  0
   -1.4600   -2.4200   -0.0600 C   0  0  0  0  0  0  0  0  0  0  0  0
    4.0200   -1.3600    1.8200 C   0  0  0  0  0  0  0  0  0  0  0  0
    1.7400   -1.8400    2.7200 C   0  0  0  0  0  0  0  0  0  0  0  0
    4.3600   -0.5600   -0.4600 C   0  0  0  0  0  0  0  0  0  0  0  0
    0.0600   -4.7800   -0.0400 C   0  0  0  0  0  0  0  0  0  0  0  0
   -2.1000   -3.6600   -0.1600 C   0  0  0  0  0  0  0  0  0  0  0  0
    4.8800   -0.9600    0.7800 C   0  0  0  0  0  0  0  0  0  0  0  0
   -1.3400   -4.8400   -0.1400 C   0  0  0  0  0  0  0  0  0  0  0  0
  1  2  2  0  0  0  0 
  2  3  1  0  0  0  0 
  2  4  1  0  0  0  0 
  3  5  2  0  0  0  0 
  3  6  1  0  0  0  0 
  4  7  2  0  0  0  0 
  4  8  1  0  0  0  0 
  5  9  1  0  0  0  0 
  5 10  1  0  0  0  0 
 11  6  2  0  0  0  0 
  7 12  1  0  0  0  0 
 13  8  2  0  0  0  0 
  9 14  2  0  0  0  0 
 14 11  1  0  0  0  0 
 12 15  2  0  0  0  0 
 15 13  1  0  0  0  0 
M  END
> <Name>
(2-methylphenyl)-phenylmethanone

> <Source>
NIH3DMolFile

> <Tox>
4.370

> <CAS>
131-58-8

$$$$

  CDK

 13 15  0  0  0  0  0  0  0  0999 V2000
    5.3180   -0.0000    0.0000 C   0  0  0  0  0  0  0  0  0  0  0  0
    6.3919   -0.7798    0.0000 C   0  0  0  0  0  0  0  0  0  0  0  0
    4.1036   -0.5433    0.0000 C   0  0  0  0  0  0  0  0  0  0  0  0
    6.2512   -2.1029    0.0000 C   0  0  0  0  0  0  0  0  0  0  0  0
    3.9630   -1.8664    0.0000 C   0  0  0  0  0  0  0  0  0  0  0  0
    2.8827   -0.0000    0.0000 O   0  0  0  0  0  0  0  0  0  0  0  0
    5.0368   -2.6462    0.0000 C   0  0  0  0  0  0  0  0  0  0  0  0
    2.6590   -2.1413    0.0000 C   0  0  0  0  0  0  0  0  0  0  0  0
    1.9943   -0.9907    0.0000 C   0  0  0  0  0  0  0  0  0  0  0  0
    1.9943   -3.2918    0.0000 C   0  0  0  0  0  0  0  0  0  0  0  0
    0.6648   -0.9907    0.0000 C   0  0  0  0  0  0  0  0  0  0  0  0
    0.6648   -3.2918    0.0000 C   0  0  0  0  0  0  0  0  0  0  0  0
    0.0000   -2.1413    0.0000 C   0  0  0  0  0  0  0  0  0  0  0  0
  1  2  2  0  0  0  0 
  1  3  1  0  0  0  0 
  2  4  1  0  0  0  0 
  5  3  2  0  0  0  0 
  6  3  1  0  0  0  0 
  4  7  2  0  0  0  0 
  7  5  1  0  0  0  0 
  5  8  1  0  0  0  0 
  9  6  1  0  0  0  0 
  8 10  2  0  0  0  0 
  8  9  1  0  0  0  0 
 11  9  2  0  0  0  0 
 10 12  1  0  0  0  0 
 13 11  1  0  0  0  0 
 12 13  2  0  0  0  0 
M  END
> <Name>
Dibenzofuran

> <Source>
DSSTox2DMolFile

> <Tox>
4.420

> <CAS>
132-64-9

$$$$

  CDK

 15 14  0  0  0  0  0  0  0  0999 V2000
    4.3025    3.5021    0.0000 C   0  0  0  0  0  0  0  0  0  0  0  0
    3.4520    3.0018    0.0000 C   0  0  0  0  0  0  0  0  0  0  0  0
    5.2031    3.0018    0.0000 O   0  0  0  0  0  0  0  0  0  0  0  0
    4.3025    4.5026    0.0000 O   0  0  0  0  0  0  0  0  0  0  0  0
    2.6015    3.5021    0.0000 C   0  0  0  0  0  0  0  0  0  0  0  0
    3.4520    2.0012    0.0000 C   0  0  0  0  0  0  0  0  0  0  0  0
    6.0536    3.5021    0.0000 C   0  0  0  0  0  0  0  0  0  0  0  0
    1.7010    3.0018    0.0000 O   0  0  0  0  0  0  0  0  0  0  0  0
    2.6015    4.5026    0.0000 O   0  0  0  0  0  0  0  0  0  0  0  0
    2.6015    1.5009    0.0000 C   0  0  0  0  0  0  0  0  0  0  0  0
    6.9041    3.0018    0.0000 C   0  0  0  0  0  0  0  0  0  0  0  0
    0.8505    3.5021    0.0000 C   0  0  0  0  0  0  0  0  0  0  0  0
    2.6015    0.5003    0.0000 C   0  0  0  0  0  0  0  0  0  0  0  0
    0.0000    3.0018    0.0000 C   0  0  0  0  0  0  0  0  0  0  0  0
    1.7010    0.0000    0.0000 C   0  0  0  0  0  0  0  0  0  0  0  0
  1  2  1  0  0  0  0 
  1  3  1  0  0  0  0 
  1  4  2  0  0  0  0 
  2  5  1  0  0  0  0 
  2  6  1  0  0  0  0 
  3  7  1  0  0  0  0 
  5  8  1  0  0  0  0 
  5  9  2  0  0  0  0 
  6 10  1  0  0  0  0 
  7 11  1  0  0  0  0 
  8 12  1  0  0  0  0 
 10 13  1  0  0  0  0 
 12 14  1  0  0  0  0 
 13 15  1  0  0  0  0 
M  END
> <Name>
Propanedioic acid, butyl-, diethyl ester

> <Source>
NIST2DMolFile

> <Tox>
3.557

> <CAS>
133-08-4

$$$$

  CDK

 17 18  0  0  0  0  0  0  0  0999 V2000
    7.9821   -0.0000    0.0000 C   0  0  0  0  0  0  0  0  0  0  0  0
    9.3092   -0.0000    0.0000 C   0  0  0  0  0  0  0  0  0  0  0  0
    7.3136   -1.1574    0.0000 C   0  0  0  0  0  0  0  0  0  0  0  0
    9.9777   -1.1574    0.0000 C   0  0  0  0  0  0  0  0  0  0  0  0
    7.9821   -2.3048    0.0000 C   0  0  0  0  0  0  0  0  0  0  0  0
    5.9866   -1.1574    0.0000 O   0  0  0  0  0  0  0  0  0  0  0  0
    9.3092   -2.3048    0.0000 C   0  0  0  0  0  0  0  0  0  0  0  0
    5.3181   -2.3048    0.0000 C   0  0  0  0  0  0  0  0  0  0  0  0
    5.9866   -3.4623    0.0000 O   0  0  0  0  0  0  0  0  0  0  0  0
    3.9911   -2.3048    0.0000 C   0  0  0  0  0  0  0  0  0  0  0  0
    3.3226   -3.4623    0.0000 C   0  0  0  0  0  0  0  0  0  0  0  0
    3.3226   -1.1574    0.0000 C   0  0  0  0  0  0  0  0  0  0  0  0
    3.9911   -4.6097    0.0000 O   0  0  0  0  0  0  0  0  0  0  0  0
    1.9955   -3.4623    0.0000 C   0  0  0  0  0  0  0  0  0  0  0  0
    1.9955   -1.1574    0.0000 C   0  0  0  0  0  0  0  0  0  0  0  0
    1.3270   -2.3048    0.0000 C   0  0  0  0  0  0  0  0  0  0  0  0
    0.0000   -2.3048    0.0000 N   0  0  0  0  0  0  0  0  0  0  0  0
  1  2  2  0  0  0  0 
  1  3  1  0  0  0  0 
  2  4  1  0  0  0  0 
  5  3  2  0  0  0  0 
  3  6  1  0  0  0  0 
  4  7  2  0  0  0  0 
  7  5  1  0  0  0  0 
  6  8  1  0  0  0  0 
  8  9  2  0  0  0  0 
  8 10  1  0  0  0  0 
 10 11  2  0  0  0  0 
 10 12  1  0  0  0  0 
 11 13  1  0  0  0  0 
 11 14  1  0  0  0  0 
 15 12  2  0  0  0  0 
 14 16  2  0  0  0  0 
 16 15  1  0  0  0  0 
 16 17  1  0  0  0  0 
M  END
> <Name>
Salicylic acid, 4-amino-, phenyl ester (8CI)

> <Source>
DSSTox2DMolFile

> <Tox>
4.410

> <CAS>
133-11-9

$$$$

  CDK

 13 13  0  0  0  0  0  0  0  0999 V2000
   -0.6507    2.5116    0.0745 O   0  0  0  0  0  0  0  0  0  0  0  0
   -0.3221    1.1924   -0.0147 C   0  0  0  0  0  0  0  0  0  0  0  0
   -2.0347    2.8266    0.2136 C   0  0  0  0  0  0  0  0  0  0  0  0
    1.0098    0.8014   -0.1527 C   0  0  0  0  0  0  0  0  0  0  0  0
   -1.3303    0.2297    0.0329 C   0  0  0  0  0  0  0  0  0  0  0  0
    1.9951    1.7426   -0.2001 O   0  0  0  0  0  0  0  0  0  0  0  0
    1.3334   -0.5525   -0.2431 C   0  0  0  0  0  0  0  0  0  0  0  0
   -1.0068   -1.1240   -0.0576 C   0  0  0  0  0  0  0  0  0  0  0  0
    2.6301   -0.9471   -0.3800 O   0  0  0  0  0  0  0  0  0  0  0  0
    0.3250   -1.5152   -0.1956 C   0  0  0  0  0  0  0  0  0  0  0  0
   -2.0583   -2.1278   -0.0084 C   0  0  0  0  0  0  0  0  0  0  0  0
    3.3630   -1.1917    0.8187 C   0  0  0  0  0  0  0  0  0  0  0  0
   -3.2536   -1.8459    0.1124 O   0  0  0  0  0  0  0  0  0  0  0  0
  1  2  1  0  0  0  0 
  1  3  1  0  0  0  0 
  2  4  2  0  0  0  0 
  2  5  1  0  0  0  0 
  6  4  1  0  0  0  0 
  7  4  1  0  0  0  0 
  8  5  2  0  0  0  0 
  9  7  1  0  0  0  0 
  7 10  2  0  0  0  0 
  8 10  1  0  0  0  0 
  8 11  1  0  0  0  0 
  9 12  1  0  0  0  0 
 13 11  2  0  0  0  0 
M  END
> <Name>
4-hydroxy-3,5-dimethoxybenzaldehyde

> <Source>
Chemidplus3DMolFile

> <Tox>
3.170

> <CAS>
134-96-3

$$$$

  CDK

 10 10  0  0  0  0  0  0  0  0999 V2000
   -1.5421    1.3462   -0.1318 C   0  0  0  0  0  0  0  0  0  0  0  0
   -0.7265    0.1067   -0.0611 C   0  0  0  0  0  0  0  0  0  0  0  0
   -2.7197    1.3768    0.1515 O   0  0  0  0  0  0  0  0  0  0  0  0
    0.6829    0.1557   -0.0068 C   0  0  0  0  0  0  0  0  0  0  0  0
   -1.3529   -1.1406   -0.0567 C   0  0  0  0  0  0  0  0  0  0  0  0
    1.4317   -1.0270    0.0400 C   0  0  0  0  0  0  0  0  0  0  0  0
    1.2291    1.4212    0.0094 O   0  0  0  0  0  0  0  0  0  0  0  0
   -0.6086   -2.3134   -0.0117 C   0  0  0  0  0  0  0  0  0  0  0  0
    0.7791   -2.2535    0.0351 C   0  0  0  0  0  0  0  0  0  0  0  0
    2.6316    1.5320    0.0106 C   0  0  0  0  0  0  0  0  0  0  0  0
  1  2  1  0  0  0  0 
  1  3  2  0  0  0  0 
  2  4  1  0  0  0  0 
  2  5  2  0  0  0  0 
  4  6  2  0  0  0  0 
  4  7  1  0  0  0  0 
  8  5  1  0  0  0  0 
  6  9  1  0  0  0  0 
  7 10  1  0  0  0  0 
  9  8  2  0  0  0  0 
M  END
> <Name>
Benzaldehyde, 2-methoxy-

> <Source>
DougDB3DMolFile

> <Tox>
3.150

> <CAS>
135-02-4

$$$$

  CDK

 16 17  0  0  0  0  0  0  0  0999 V2000
    2.9504    0.9001    0.0000 C   0  0  0  0  0  0  0  0  0  0  0  0
    3.5005    1.7502    0.0000 O   0  0  0  0  0  0  0  0  0  0  0  0
    3.4505    0.0000    0.0000 O   0  0  0  0  0  0  0  0  0  0  0  0
    2.0003    0.9001    0.0000 C   0  0  0  0  0  0  0  0  0  0  0  0
    4.5006    1.7502    0.0000 C   0  0  0  0  0  0  0  0  0  0  0  0
    1.5002    1.7502    0.0000 C   0  0  0  0  0  0  0  0  0  0  0  0
    1.5002    0.0000    0.0000 C   0  0  0  0  0  0  0  0  0  0  0  0
    5.0007    2.6004    0.0000 C   0  0  0  0  0  0  0  0  0  0  0  0
    5.0007    0.9001    0.0000 C   0  0  0  0  0  0  0  0  0  0  0  0
    0.5001    1.7502    0.0000 C   0  0  0  0  0  0  0  0  0  0  0  0
    0.5001    0.0000    0.0000 C   0  0  0  0  0  0  0  0  0  0  0  0
    6.0008    2.6004    0.0000 C   0  0  0  0  0  0  0  0  0  0  0  0
    6.0008    0.9001    0.0000 C   0  0  0  0  0  0  0  0  0  0  0  0
    0.0000    0.9001    0.0000 C   0  0  0  0  0  0  0  0  0  0  0  0
    6.5009    3.5005    0.0000 O   0  0  0  0  0  0  0  0  0  0  0  0
    6.5009    1.7502    0.0000 C   0  0  0  0  0  0  0  0  0  0  0  0
  1  2  1  0  0  0  0 
  1  3  2  0  0  0  0 
  1  4  1  0  0  0  0 
  2  5  1  0  0  0  0 
  4  6  2  0  0  0  0 
  7  4  1  0  0  0  0 
  8  5  2  0  0  0  0 
  5  9  1  0  0  0  0 
  6 10  1  0  0  0  0 
 11  7  2  0  0  0  0 
 12  8  1  0  0  0  0 
  9 13  2  0  0  0  0 
 10 14  2  0  0  0  0 
 14 11  1  0  0  0  0 
 12 15  1  0  0  0  0 
 16 12  2  0  0  0  0 
 13 16  1  0  0  0  0 
M  END
> <Name>
1,3-Benzenediol, monobenzoate

> <Source>
NIST2DMolFile

> <Tox>
4.110

> <CAS>
136-36-7

$$$$

  CDK

 13 13  0  0  0  0  0  0  0  0999 V2000
   -0.3214    0.9054   -0.0011 C   0  0  0  0  0  0  0  0  0  0  0  0
   -1.6317    0.2012   -0.0003 C   0  0  0  0  0  0  0  0  0  0  0  0
   -0.1392    2.1096   -0.0018 O   0  0  0  0  0  0  0  0  0  0  0  0
    0.7655    0.0800   -0.0007 O   0  0  0  0  0  0  0  0  0  0  0  0
   -1.7248   -1.1932   -0.0017 C   0  0  0  0  0  0  0  0  0  0  0  0
   -2.7985    0.9721    0.0017 C   0  0  0  0  0  0  0  0  0  0  0  0
    2.0658    0.6721   -0.0011 C   0  0  0  0  0  0  0  0  0  0  0  0
   -2.9734   -1.8049   -0.0010 C   0  0  0  0  0  0  0  0  0  0  0  0
   -4.0427    0.3525    0.0024 C   0  0  0  0  0  0  0  0  0  0  0  0
    3.0607   -0.4853   -0.0017 C   0  0  0  0  0  0  0  0  0  0  0  0
   -4.1321   -1.0354    0.0011 C   0  0  0  0  0  0  0  0  0  0  0  0
    4.4847    0.0472    0.0035 C   0  0  0  0  0  0  0  0  0  0  0  0
    5.4934   -1.0791    0.0008 C   0  0  0  0  0  0  0  0  0  0  0  0
  1  2  1  0  0  0  0 
  1  3  2  0  0  0  0 
  1  4  1  0  0  0  0 
  2  5  1  0  0  0  0 
  2  6  2  0  0  0  0 
  4  7  1  0  0  0  0 
  5  8  2  0  0  0  0 
  9  6  1  0  0  0  0 
  7 10  1  0  0  0  0 
  8 11  1  0  0  0  0 
 11  9  2  0  0  0  0 
 10 12  1  0  0  0  0 
 12 13  1  0  0  0  0 
M  END
> <Name>
Benzoic acid, butyl ester

> <Source>
DougDB3DMolFile

> <Tox>
3.920

> <CAS>
136-60-7

$$$$

  CDK

 14 14  0  0  0  0  0  0  0  0999 V2000
    7.9795   -4.6042    0.0000 O   0  0  0  0  0  0  0  0  0  0  0  0
    7.3172   -3.4551    0.0000 C   0  0  0  0  0  0  0  0  0  0  0  0
    5.9846   -3.4551    0.0000 C   0  0  0  0  0  0  0  0  0  0  0  0
    7.9795   -2.2981    0.0000 C   0  0  0  0  0  0  0  0  0  0  0  0
    5.3223   -2.2981    0.0000 C   0  0  0  0  0  0  0  0  0  0  0  0
    5.3223   -4.6042    0.0000 C   0  0  0  0  0  0  0  0  0  0  0  0
    7.3172   -1.1491    0.0000 C   0  0  0  0  0  0  0  0  0  0  0  0
    5.9846   -1.1491    0.0000 C   0  0  0  0  0  0  0  0  0  0  0  0
    3.9898   -4.6042    0.0000 C   0  0  0  0  0  0  0  0  0  0  0  0
    7.9795   -0.0000    0.0000 O   0  0  0  0  0  0  0  0  0  0  0  0
    3.3275   -3.4551    0.0000 C   0  0  0  0  0  0  0  0  0  0  0  0
    1.9949   -3.4551    0.0000 C   0  0  0  0  0  0  0  0  0  0  0  0
    1.3326   -2.2981    0.0000 C   0  0  0  0  0  0  0  0  0  0  0  0
    0.0000   -2.2981    0.0000 C   0  0  0  0  0  0  0  0  0  0  0  0
  1  2  1  0  0  0  0 
  2  3  2  0  0  0  0 
  2  4  1  0  0  0  0 
  3  5  1  0  0  0  0 
  3  6  1  0  0  0  0 
  7  4  2  0  0  0  0 
  5  8  2  0  0  0  0 
  6  9  1  0  0  0  0 
  8  7  1  0  0  0  0 
  7 10  1  0  0  0  0 
  9 11  1  0  0  0  0 
 11 12  1  0  0  0  0 
 12 13  1  0  0  0  0 
 13 14  1  0  0  0  0 
M  END
> <Name>
1,3-Benzenediol, 4-hexyl-

> <Source>
DSSTox2DMolFile

> <Tox>
4.800

> <CAS>
136-77-6

$$$$

  CDK

 10 10  0  0  0  0  0  0  0  0999 V2000
    4.6084   -2.6590    0.0000 Cl  0  0  0  0  0  0  0  0  0  0  0  0
    3.4563   -1.9954    0.0000 C   0  0  0  0  0  0  0  0  0  0  0  0
    2.3042   -2.6590    0.0000 C   0  0  0  0  0  0  0  0  0  0  0  0
    3.4563   -0.6636    0.0000 C   0  0  0  0  0  0  0  0  0  0  0  0
    1.1521   -1.9954    0.0000 C   0  0  0  0  0  0  0  0  0  0  0  0
    2.3042   -0.0000    0.0000 C   0  0  0  0  0  0  0  0  0  0  0  0
    4.6084   -0.0000    0.0000 O   0  0  0  0  0  0  0  0  0  0  0  0
    0.0000   -2.6590    0.0000 Cl  0  0  0  0  0  0  0  0  0  0  0  0
    1.1521   -0.6636    0.0000 C   0  0  0  0  0  0  0  0  0  0  0  0
    0.0000   -0.0000    0.0000 O   0  0  0  0  0  0  0  0  0  0  0  0
  1  2  1  0  0  0  0 
  2  3  1  0  0  0  0 
  2  4  2  0  0  0  0 
  3  5  2  0  0  0  0 
  4  6  1  0  0  0  0 
  4  7  1  0  0  0  0 
  5  8  1  0  0  0  0 
  5  9  1  0  0  0  0 
  6  9  2  0  0  0  0 
  9 10  1  0  0  0  0 
M  END
> <Name>
Resorcinol, 4,6-dichloro- (8CI)

> <Source>
DSSTox2DMolFile

> <Tox>
3.970

> <CAS>
137-19-9

$$$$

  CDK

  6  5  0  0  0  0  0  0  0  0999 V2000
    1.1683   -0.0000    0.0000 C   0  0  0  0  0  0  0  0  0  0  0  0
    2.3228   -0.6604    0.0000 C   0  0  0  0  0  0  0  0  0  0  0  0
    0.0000   -0.6604    0.0000 O   0  0  0  0  0  0  0  0  0  0  0  0
    3.4773   -0.0000    0.0000 C   0  0  0  0  0  0  0  0  0  0  0  0
    2.3228   -1.9903    0.0000 C   0  0  0  0  0  0  0  0  0  0  0  0
    4.6179   -0.6604    0.0000 C   0  0  0  0  0  0  0  0  0  0  0  0
  1  2  1  0  0  0  0 
  1  3  1  0  0  0  0 
  2  4  1  0  0  0  0 
  2  5  1  0  0  0  0 
  4  6  1  0  0  0  0 
M  END
> <Name>
(1)-2-Methylbutan-1-ol

> <Source>
DSSTox2DMolFile

> <Tox>
2.047

> <CAS>
137-32-6

$$$$

  CDK

 10 10  0  0  0  0  0  0  0  0999 V2000
    4.5810    0.9264    1.0290 C   0  0  0  0  0  0  0  0  0  0  0  0
    4.2643    0.0000    0.3175 O   0  0  0  0  0  0  0  0  0  0  0  0
    3.7276    2.1170    1.2704 C   0  0  0  0  0  0  0  0  0  0  0  0
    2.4778    2.2234    0.6639 C   0  0  0  0  0  0  0  0  0  0  0  0
    4.1935    3.1272    2.1162 C   0  0  0  0  0  0  0  0  0  0  0  0
    1.6909    3.3546    0.9069 C   0  0  0  0  0  0  0  0  0  0  0  0
    3.4228    4.2533    2.3619 C   0  0  0  0  0  0  0  0  0  0  0  0
    0.4843    3.3910    0.2549 O   0  0  0  0  0  0  0  0  0  0  0  0
    2.1656    4.3777    1.7563 C   0  0  0  0  0  0  0  0  0  0  0  0
    1.4667    5.5178    2.0561 O   0  0  0  0  0  0  0  0  0  0  0  0
  1  2  2  0  0  0  0 
  1  3  1  0  0  0  0 
  3  4  2  0  0  0  0 
  5  3  1  0  0  0  0 
  4  6  1  0  0  0  0 
  7  5  2  0  0  0  0 
  6  8  1  0  0  0  0 
  6  9  2  0  0  0  0 
  9  7  1  0  0  0  0 
  9 10  1  0  0  0  0 
M  END
> <Name>
Benzaldehyde, 3,4-dihydroxy- (9CI)

> <Source>
NIST3DMolFile

> <Tox>
3.107

> <CAS>
139-85-5

$$$$

  CDK

 15 15  0  0  0  0  0  0  0  0999 V2000
    3.4732    1.5101    0.0000 C   0  0  0  0  0  0  0  0  0  0  0  0
    2.6175    2.0134    0.0000 C   0  0  0  0  0  0  0  0  0  0  0  0
    4.3289    2.0134    0.0000 O   0  0  0  0  0  0  0  0  0  0  0  0
    1.7618    1.5101    0.0000 C   0  0  0  0  0  0  0  0  0  0  0  0
    5.2349    1.5101    0.0000 C   0  0  0  0  0  0  0  0  0  0  0  0
    0.8557    1.9631    0.0000 C   0  0  0  0  0  0  0  0  0  0  0  0
    1.7618    0.5034    0.0000 C   0  0  0  0  0  0  0  0  0  0  0  0
    6.0907    2.0134    0.0000 C   0  0  0  0  0  0  0  0  0  0  0  0
    5.2349    0.5537    0.0000 O   0  0  0  0  0  0  0  0  0  0  0  0
    0.0000    1.4597    0.0000 C   0  0  0  0  0  0  0  0  0  0  0  0
    0.8557    0.0000    0.0000 C   0  0  0  0  0  0  0  0  0  0  0  0
    6.9967    1.5101    0.0000 C   0  0  0  0  0  0  0  0  0  0  0  0
    0.0000    0.4530    0.0000 C   0  0  0  0  0  0  0  0  0  0  0  0
    6.9967    0.5537    0.0000 C   0  0  0  0  0  0  0  0  0  0  0  0
    7.8524    2.0638    0.0000 C   0  0  0  0  0  0  0  0  0  0  0  0
  1  2  1  0  0  0  0 
  1  3  1  0  0  0  0 
  2  4  1  0  0  0  0 
  3  5  1  0  0  0  0 
  6  4  2  0  0  0  0 
  4  7  1  0  0  0  0 
  5  8  1  0  0  0  0 
  5  9  2  0  0  0  0 
 10  6  1  0  0  0  0 
  7 11  2  0  0  0  0 
  8 12  1  0  0  0  0 
 13 10  2  0  0  0  0 
 11 13  1  0  0  0  0 
 12 14  1  0  0  0  0 
 12 15  1  0  0  0  0 
M  END
> <Name>
Butanoic acid, 3-methyl-, 2-phenylethyl ester

> <Source>
NIST2DMolFile

> <Tox>
4.100

> <CAS>
140-26-1

$$$$

  CDK

  9  9  0  0  0  0  0  0  0  0999 V2000
    0.0000   -1.3304    0.0000 N   0  0  0  0  0  0  0  0  0  0  0  0
    1.1518   -1.9984    0.0000 C   0  0  0  0  0  0  0  0  0  0  0  0
    2.3037   -2.6607    0.0000 C   0  0  0  0  0  0  0  0  0  0  0  0
    3.4555   -1.9984    0.0000 C   0  0  0  0  0  0  0  0  0  0  0  0
    3.4555   -0.6681    0.0000 C   0  0  0  0  0  0  0  0  0  0  0  0
    4.6073   -2.6607    0.0000 C   0  0  0  0  0  0  0  0  0  0  0  0
    4.6073   -0.0000    0.0000 C   0  0  0  0  0  0  0  0  0  0  0  0
    5.7591   -1.9984    0.0000 C   0  0  0  0  0  0  0  0  0  0  0  0
    5.7591   -0.6681    0.0000 C   0  0  0  0  0  0  0  0  0  0  0  0
  1  2  3  0  0  0  0 
  2  3  1  0  0  0  0 
  3  4  1  0  0  0  0 
  4  5  2  0  0  0  0 
  4  6  1  0  0  0  0 
  5  7  1  0  0  0  0 
  8  6  2  0  0  0  0 
  7  9  2  0  0  0  0 
  9  8  1  0  0  0  0 
M  END
> <Name>
Acetonitrile, phenyl-

> <Source>
DSSTox2DMolFile

> <Tox>
2.640

> <CAS>
140-29-4

$$$$

  CDK

  9  9  0  0  0  0  0  0  0  0999 V2000
    0.0000   -0.0000    0.0000 N   0  0  0  0  0  0  0  0  0  0  0  0
    1.3283   -0.0000    0.0000 C   0  0  0  0  0  0  0  0  0  0  0  0
    1.9925   -1.1548    0.0000 C   0  0  0  0  0  0  0  0  0  0  0  0
    3.3269   -1.1548    0.0000 N   0  0  0  0  0  0  0  0  0  0  0  0
    3.9910   -0.0000    0.0000 C   0  0  0  0  0  0  0  0  0  0  0  0
    3.9910   -2.3037    0.0000 C   0  0  0  0  0  0  0  0  0  0  0  0
    5.3194   -0.0000    0.0000 C   0  0  0  0  0  0  0  0  0  0  0  0
    5.3194   -2.3037    0.0000 C   0  0  0  0  0  0  0  0  0  0  0  0
    5.9836   -1.1548    0.0000 N   0  0  0  0  0  0  0  0  0  0  0  0
  1  2  1  0  0  0  0 
  2  3  1  0  0  0  0 
  3  4  1  0  0  0  0 
  4  5  1  0  0  0  0 
  4  6  1  0  0  0  0 
  5  7  1  0  0  0  0 
  8  6  1  0  0  0  0 
  7  9  1  0  0  0  0 
  9  8  1  0  0  0  0 
M  END
> <Name>
Piperazine, 1-(2-aminoethyl)-

> <Source>
DSSTox2DMolFile

> <Tox>
2.210

> <CAS>
140-31-8

$$$$

  CDK

 10 10  0  0  0  0  0  0  0  0999 V2000
    2.4821    2.5834    0.0000 C   0  0  0  0  0  0  0  0  0  0  0  0
    1.9755    1.6716    0.0000 C   0  0  0  0  0  0  0  0  0  0  0  0
    3.4952    2.5834    0.0000 C   0  0  0  0  0  0  0  0  0  0  0  0
    2.4821    0.8611    0.0000 C   0  0  0  0  0  0  0  0  0  0  0  0
    1.0131    1.7223    0.0000 C   0  0  0  0  0  0  0  0  0  0  0  0
    4.0017    1.6716    0.0000 C   0  0  0  0  0  0  0  0  0  0  0  0
    3.4952    0.8611    0.0000 C   0  0  0  0  0  0  0  0  0  0  0  0
    0.5065    0.8611    0.0000 C   0  0  0  0  0  0  0  0  0  0  0  0
    5.0148    1.7223    0.0000 Cl  0  0  0  0  0  0  0  0  0  0  0  0
    0.0000    0.0000    0.0000 N   0  0  0  0  0  0  0  0  0  0  0  0
  1  2  2  0  0  0  0 
  3  1  1  0  0  0  0 
  2  4  1  0  0  0  0 
  2  5  1  0  0  0  0 
  6  3  2  0  0  0  0 
  4  7  2  0  0  0  0 
  5  8  1  0  0  0  0 
  6  9  1  0  0  0  0 
  7  6  1  0  0  0  0 
  8 10  3  0  0  0  0 
M  END
> <Name>
Acetonitrile, (p-chlorophenyl)-

> <Source>
NIST2DMolFile

> <Tox>
3.660

> <CAS>
140-53-4

$$$$

  CDK

  7  6  0  0  0  0  0  0  0  0999 V2000
    2.6592   -0.0000    0.0000 O   0  0  0  0  0  0  0  0  0  0  0  0
    1.9979   -1.1550    0.0000 C   0  0  0  0  0  0  0  0  0  0  0  0
    2.6592   -2.3053    0.0000 O   0  0  0  0  0  0  0  0  0  0  0  0
    0.6660   -1.1550    0.0000 C   0  0  0  0  0  0  0  0  0  0  0  0
    3.9912   -2.3053    0.0000 C   0  0  0  0  0  0  0  0  0  0  0  0
    0.0000   -2.3053    0.0000 C   0  0  0  0  0  0  0  0  0  0  0  0
    4.6571   -1.1550    0.0000 C   0  0  0  0  0  0  0  0  0  0  0  0
  1  2  2  0  0  0  0 
  2  3  1  0  0  0  0 
  2  4  1  0  0  0  0 
  3  5  1  0  0  0  0 
  4  6  2  0  0  0  0 
  5  7  1  0  0  0  0 
M  END
> <Name>
2-Propenoic acid, ethyl ester

> <Source>
DSSTox2DMolFile

> <Tox>
3.520

> <CAS>
140-88-5

$$$$

  CDK

 16 15  0  0  0  0  0  0  0  0999 V2000
   12.6865   -3.3366    0.0000 C   0  0  0  0  0  0  0  0  0  0  0  0
   11.5320   -3.9963    0.0000 C   0  0  0  0  0  0  0  0  0  0  0  0
   10.3776   -3.3366    0.0000 C   0  0  0  0  0  0  0  0  0  0  0  0
    9.2231   -3.9963    0.0000 C   0  0  0  0  0  0  0  0  0  0  0  0
    8.0686   -3.3366    0.0000 O   0  0  0  0  0  0  0  0  0  0  0  0
    6.9142   -3.9963    0.0000 C   0  0  0  0  0  0  0  0  0  0  0  0
    6.9142   -5.3283    0.0000 O   0  0  0  0  0  0  0  0  0  0  0  0
    5.7724   -3.3366    0.0000 C   0  0  0  0  0  0  0  0  0  0  0  0
    4.6179   -3.9963    0.0000 C   0  0  0  0  0  0  0  0  0  0  0  0
    3.4634   -3.3366    0.0000 C   0  0  0  0  0  0  0  0  0  0  0  0
    3.4634   -2.0045    0.0000 O   0  0  0  0  0  0  0  0  0  0  0  0
    2.3089   -3.9963    0.0000 O   0  0  0  0  0  0  0  0  0  0  0  0
    1.1545   -3.3366    0.0000 C   0  0  0  0  0  0  0  0  0  0  0  0
    1.1545   -2.0045    0.0000 C   0  0  0  0  0  0  0  0  0  0  0  0
    0.0000   -1.3321    0.0000 C   0  0  0  0  0  0  0  0  0  0  0  0
    0.0000   -0.0000    0.0000 C   0  0  0  0  0  0  0  0  0  0  0  0
  1  2  1  0  0  0  0 
  2  3  1  0  0  0  0 
  3  4  1  0  0  0  0 
  4  5  1  0  0  0  0 
  5  6  1  0  0  0  0 
  6  7  2  0  0  0  0 
  6  8  1  0  0  0  0 
  8  9  1  0  0  0  0 
  9 10  1  0  0  0  0 
 10 11  2  0  0  0  0 
 10 12  1  0  0  0  0 
 12 13  1  0  0  0  0 
 13 14  1  0  0  0  0 
 14 15  1  0  0  0  0 
 15 16  1  0  0  0  0 
M  END
> <Name>
Butanedioic acid, dibutyl ester

> <Source>
DSSTox2DMolFile

> <Tox>
3.512

> <CAS>
141-03-7

$$$$

  CDK

 10  9  0  0  0  0  0  0  0  0999 V2000
    6.8867    1.8360    1.5931 C   0  0  0  0  0  0  0  0  0  0  0  0
    5.6636    1.0619    2.0293 C   0  0  0  0  0  0  0  0  0  0  0  0
    8.1011    0.9415    1.4080 C   0  0  0  0  0  0  0  0  0  0  0  0
    4.5036    1.7059    1.7058 O   0  0  0  0  0  0  0  0  0  0  0  0
    5.6080    0.0000    2.6174 O   0  0  0  0  0  0  0  0  0  0  0  0
    9.3114    1.7551    0.9751 C   0  0  0  0  0  0  0  0  0  0  0  0
    3.2626    1.1037    2.0758 C   0  0  0  0  0  0  0  0  0  0  0  0
   10.5478    0.8908    0.8753 C   0  0  0  0  0  0  0  0  0  0  0  0
    2.1628    2.0050    1.5206 C   0  0  0  0  0  0  0  0  0  0  0  0
    0.8023    1.4585    1.8897 C   0  0  0  0  0  0  0  0  0  0  0  0
  1  2  1  0  0  0  0 
  1  3  1  0  0  0  0 
  2  4  1  0  0  0  0 
  2  5  2  0  0  0  0 
  3  6  1  0  0  0  0 
  4  7  1  0  0  0  0 
  6  8  1  0  0  0  0 
  7  9  1  0  0  0  0 
  9 10  1  0  0  0  0 
M  END
> <Name>
Valeric acid, propyl ester (8CI)

> <Source>
NIST3DMolFile

> <Tox>
3.009

> <CAS>
141-06-0

$$$$

  CDK

 14 13  0  0  0  0  0  0  0  0999 V2000
   10.3655   -2.0005    0.0000 C   0  0  0  0  0  0  0  0  0  0  0  0
   10.3655   -0.6738    0.0000 C   0  0  0  0  0  0  0  0  0  0  0  0
    9.2149   -0.0000    0.0000 O   0  0  0  0  0  0  0  0  0  0  0  0
    8.0643   -0.6738    0.0000 C   0  0  0  0  0  0  0  0  0  0  0  0
    8.0643   -2.0005    0.0000 O   0  0  0  0  0  0  0  0  0  0  0  0
    6.9138   -0.0000    0.0000 C   0  0  0  0  0  0  0  0  0  0  0  0
    5.7632   -0.6738    0.0000 C   0  0  0  0  0  0  0  0  0  0  0  0
    5.7632   -2.0005    0.0000 C   0  0  0  0  0  0  0  0  0  0  0  0
    4.6023   -2.6639    0.0000 C   0  0  0  0  0  0  0  0  0  0  0  0
    3.4517   -2.0005    0.0000 C   0  0  0  0  0  0  0  0  0  0  0  0
    3.4517   -0.6738    0.0000 O   0  0  0  0  0  0  0  0  0  0  0  0
    2.3011   -2.6639    0.0000 O   0  0  0  0  0  0  0  0  0  0  0  0
    1.1506   -2.0005    0.0000 C   0  0  0  0  0  0  0  0  0  0  0  0
    0.0000   -2.6639    0.0000 C   0  0  0  0  0  0  0  0  0  0  0  0
  1  2  1  0  0  0  0 
  2  3  1  0  0  0  0 
  3  4  1  0  0  0  0 
  4  5  2  0  0  0  0 
  4  6  1  0  0  0  0 
  6  7  1  0  0  0  0 
  7  8  1  0  0  0  0 
  8  9  1  0  0  0  0 
  9 10  1  0  0  0  0 
 10 11  2  0  0  0  0 
 10 12  1  0  0  0  0 
 12 13  1  0  0  0  0 
 13 14  1  0  0  0  0 
M  END
> <Name>
Hexanedioic acid, diethyl ester

> <Source>
DSSTox2DMolFile

> <Tox>
2.874

> <CAS>
141-28-6

$$$$

  CDK

  9  8  0  0  0  0  0  0  0  0999 V2000
    1.1530   -0.0000    0.0000 O   0  0  0  0  0  0  0  0  0  0  0  0
    1.1530   -1.3257    0.0000 C   0  0  0  0  0  0  0  0  0  0  0  0
    2.2992   -1.9954    0.0000 O   0  0  0  0  0  0  0  0  0  0  0  0
    0.0000   -1.9954    0.0000 C   0  0  0  0  0  0  0  0  0  0  0  0
    3.4522   -1.3257    0.0000 C   0  0  0  0  0  0  0  0  0  0  0  0
    0.0000   -3.3210    0.0000 C   0  0  0  0  0  0  0  0  0  0  0  0
    4.6053   -1.9954    0.0000 C   0  0  0  0  0  0  0  0  0  0  0  0
    5.7514   -1.3257    0.0000 C   0  0  0  0  0  0  0  0  0  0  0  0
    6.9045   -1.9954    0.0000 C   0  0  0  0  0  0  0  0  0  0  0  0
  1  2  2  0  0  0  0 
  2  3  1  0  0  0  0 
  2  4  1  0  0  0  0 
  3  5  1  0  0  0  0 
  4  6  2  0  0  0  0 
  5  7  1  0  0  0  0 
  7  8  1  0  0  0  0 
  8  9  1  0  0  0  0 
M  END
> <Name>
Acrylic acid butyl ester (8CI)

> <Source>
DSSTox2DMolFile

> <Tox>
3.520

> <CAS>
141-32-2

$$$$

  CDK

  4  3  0  0  0  0  0  0  0  0999 V2000
    0.0000   -0.0000    0.0000 O   0  0  0  0  0  0  0  0  0  0  0  0
    1.1513   -0.6638    0.0000 C   0  0  0  0  0  0  0  0  0  0  0  0
    2.3061   -0.0000    0.0000 C   0  0  0  0  0  0  0  0  0  0  0  0
    3.4575   -0.6638    0.0000 N   0  0  0  0  0  0  0  0  0  0  0  0
  1  2  1  0  0  0  0 
  2  3  1  0  0  0  0 
  3  4  1  0  0  0  0 
M  END
> <Name>
Ethanol, 2-amino-

> <Source>
DSSTox2DMolFile

> <Tox>
1.115

> <CAS>
141-43-5

$$$$

  CDK

  6  5  0  0  0  0  0  0  0  0999 V2000
    4.6084   -1.9954    0.0000 C   0  0  0  0  0  0  0  0  0  0  0  0
    3.4563   -1.3318    0.0000 C   0  0  0  0  0  0  0  0  0  0  0  0
    3.4563   -0.0000    0.0000 O   0  0  0  0  0  0  0  0  0  0  0  0
    2.3042   -1.9954    0.0000 O   0  0  0  0  0  0  0  0  0  0  0  0
    1.1521   -1.3318    0.0000 C   0  0  0  0  0  0  0  0  0  0  0  0
    0.0000   -1.9954    0.0000 C   0  0  0  0  0  0  0  0  0  0  0  0
  1  2  1  0  0  0  0 
  2  3  2  0  0  0  0 
  2  4  1  0  0  0  0 
  4  5  1  0  0  0  0 
  5  6  1  0  0  0  0 
M  END
> <Name>
Acetic acid ethyl ester

> <Source>
DSSTox2DMolFile

> <Tox>
1.703

> <CAS>
141-78-6

$$$$

  CDK

 12 11  0  0  0  0  0  0  0  0999 V2000
    0.0000   -2.0011    0.0000 C   0  0  0  0  0  0  0  0  0  0  0  0
    1.1509   -1.3375    0.0000 C   0  0  0  0  0  0  0  0  0  0  0  0
    2.3018   -2.0011    0.0000 C   0  0  0  0  0  0  0  0  0  0  0  0
    3.4527   -1.3375    0.0000 C   0  0  0  0  0  0  0  0  0  0  0  0
    4.6035   -2.0011    0.0000 C   0  0  0  0  0  0  0  0  0  0  0  0
    5.7648   -1.3375    0.0000 C   0  0  0  0  0  0  0  0  0  0  0  0
    6.9157   -2.0011    0.0000 O   0  0  0  0  0  0  0  0  0  0  0  0
    8.0666   -1.3375    0.0000 C   0  0  0  0  0  0  0  0  0  0  0  0
    8.0666   -0.0000    0.0000 O   0  0  0  0  0  0  0  0  0  0  0  0
    9.2175   -2.0011    0.0000 C   0  0  0  0  0  0  0  0  0  0  0  0
   10.3683   -1.3375    0.0000 C   0  0  0  0  0  0  0  0  0  0  0  0
    9.2175   -3.3282    0.0000 C   0  0  0  0  0  0  0  0  0  0  0  0
  1  2  1  0  0  0  0 
  2  3  1  0  0  0  0 
  3  4  1  0  0  0  0 
  4  5  1  0  0  0  0 
  5  6  1  0  0  0  0 
  6  7  1  0  0  0  0 
  7  8  1  0  0  0  0 
  8  9  2  0  0  0  0 
  8 10  1  0  0  0  0 
 10 11  1  0  0  0  0 
 10 12  2  0  0  0  0 
M  END
> <Name>
Methacrylic acid, hexyl ester (8CI)

> <Source>
DSSTox2DMolFile

> <Tox>
4.090

> <CAS>
142-09-6

$$$$

  CDK

 12 11  0  0  0  0  0  0  0  0999 V2000
   -1.4018    0.9771   -0.1968 C   0  0  0  0  0  0  0  0  0  0  0  0
   -0.1303    0.5612   -0.9031 C   0  0  0  0  0  0  0  0  0  0  0  0
   -1.6568    2.0556    0.3021 O   0  0  0  0  0  0  0  0  0  0  0  0
   -2.3322   -0.0189   -0.1536 O   0  0  0  0  0  0  0  0  0  0  0  0
    1.0084    0.4070    0.0942 C   0  0  0  0  0  0  0  0  0  0  0  0
   -3.5796    0.2455    0.4876 C   0  0  0  0  0  0  0  0  0  0  0  0
    2.2975    0.0186   -0.6125 C   0  0  0  0  0  0  0  0  0  0  0  0
   -4.4553   -0.9597    0.4065 C   0  0  0  0  0  0  0  0  0  0  0  0
    3.4409   -0.1361    0.3771 C   0  0  0  0  0  0  0  0  0  0  0  0
   -4.1729   -2.1052   -0.2009 C   0  0  0  0  0  0  0  0  0  0  0  0
    4.7316   -0.5267   -0.3250 C   0  0  0  0  0  0  0  0  0  0  0  0
    5.8709   -0.6795    0.6572 C   0  0  0  0  0  0  0  0  0  0  0  0
  1  2  1  0  0  0  0 
  1  3  2  0  0  0  0 
  1  4  1  0  0  0  0 
  2  5  1  0  0  0  0 
  4  6  1  0  0  0  0 
  5  7  1  0  0  0  0 
  6  8  1  0  0  0  0 
  7  9  1  0  0  0  0 
  8 10  2  0  0  0  0 
  9 11  1  0  0  0  0 
 11 12  1  0  0  0  0 
M  END
> <Name>
Heptanoic acid, 2-propenyl ester

> <Source>
DougDB3DMolFile

> <Tox>
3.728

> <CAS>
142-19-8

$$$$

  CDK

 10  9  0  0  0  0  0  0  0  0999 V2000
    1.3285   -0.0000    0.0000 C   0  0  0  0  0  0  0  0  0  0  0  0
    1.3285   -1.3352    0.0000 C   0  0  0  0  0  0  0  0  0  0  0  0
    2.6637   -1.3352    0.0000 C   0  0  0  0  0  0  0  0  0  0  0  0
    1.3285   -2.6637    0.0000 O   0  0  0  0  0  0  0  0  0  0  0  0
    0.0000   -1.3352    0.0000 C   0  0  0  0  0  0  0  0  0  0  0  0
    3.9922   -1.3352    0.0000 C   0  0  0  0  0  0  0  0  0  0  0  0
    5.3141   -1.3352    0.0000 C   0  0  0  0  0  0  0  0  0  0  0  0
    6.6426   -1.3352    0.0000 C   0  0  0  0  0  0  0  0  0  0  0  0
    5.3141   -0.0000    0.0000 O   0  0  0  0  0  0  0  0  0  0  0  0
    5.3141   -2.6637    0.0000 C   0  0  0  0  0  0  0  0  0  0  0  0
  1  2  1  0  0  0  0 
  2  3  1  0  0  0  0 
  2  4  1  0  0  0  0 
  2  5  1  0  0  0  0 
  3  6  3  0  0  0  0 
  6  7  1  0  0  0  0 
  7  8  1  0  0  0  0 
  7  9  1  0  0  0  0 
  7 10  1  0  0  0  0 
M  END
> <Name>
3-Hexyne-2,5-diol, 2,5-dimethyl-

> <Source>
DSSTox2DMolFile

> <Tox>
1.415

> <CAS>
142-30-3

$$$$

  CDK

  8  7  0  0  0  0  0  0  0  0999 V2000
    1.7491    1.4992    0.0000 C   0  0  0  0  0  0  0  0  0  0  0  0
    2.5986    0.9995    0.0000 C   0  0  0  0  0  0  0  0  0  0  0  0
    0.8495    0.9995    0.0000 C   0  0  0  0  0  0  0  0  0  0  0  0
    3.4482    1.4992    0.0000 C   0  0  0  0  0  0  0  0  0  0  0  0
    0.8495    0.0000    0.0000 Cl  0  0  0  0  0  0  0  0  0  0  0  0
    0.0000    1.4992    0.0000 O   0  0  0  0  0  0  0  0  0  0  0  0
    4.3477    0.9995    0.0000 C   0  0  0  0  0  0  0  0  0  0  0  0
    5.1972    1.4992    0.0000 C   0  0  0  0  0  0  0  0  0  0  0  0
  1  2  1  0  0  0  0 
  1  3  1  0  0  0  0 
  2  4  1  0  0  0  0 
  3  5  1  0  0  0  0 
  3  6  2  0  0  0  0 
  4  7  1  0  0  0  0 
  7  8  1  0  0  0  0 
M  END
> <Name>
Hexanoyl chloride

> <Source>
NIST2DMolFile

> <Tox>
3.340

> <CAS>
142-61-0

$$$$

  CDK

  8  7  0  0  0  0  0  0  0  0999 V2000
    0.0000   -1.9974    0.0000 C   0  0  0  0  0  0  0  0  0  0  0  0
    1.1542   -1.3339    0.0000 C   0  0  0  0  0  0  0  0  0  0  0  0
    2.3015   -1.9974    0.0000 C   0  0  0  0  0  0  0  0  0  0  0  0
    3.4558   -1.3339    0.0000 C   0  0  0  0  0  0  0  0  0  0  0  0
    4.6100   -1.9974    0.0000 C   0  0  0  0  0  0  0  0  0  0  0  0
    5.7573   -1.3339    0.0000 C   0  0  0  0  0  0  0  0  0  0  0  0
    6.9115   -1.9974    0.0000 O   0  0  0  0  0  0  0  0  0  0  0  0
    5.7573   -0.0000    0.0000 O   0  0  0  0  0  0  0  0  0  0  0  0
  1  2  1  0  0  0  0 
  2  3  1  0  0  0  0 
  3  4  1  0  0  0  0 
  4  5  1  0  0  0  0 
  5  6  1  0  0  0  0 
  6  7  1  0  0  0  0 
  6  8  2  0  0  0  0 
M  END
> <Name>
Hexanoic acid

> <Source>
DSSTox2DMolFile

> <Tox>
2.792

> <CAS>
142-62-1

$$$$

  CDK

  7  6  0  0  0  0  0  0  0  0999 V2000
    0.0000   -0.6638    0.0000 O   0  0  0  0  0  0  0  0  0  0  0  0
    1.1548   -0.0000    0.0000 C   0  0  0  0  0  0  0  0  0  0  0  0
    2.3027   -0.6638    0.0000 C   0  0  0  0  0  0  0  0  0  0  0  0
    3.4575   -0.0000    0.0000 C   0  0  0  0  0  0  0  0  0  0  0  0
    4.6122   -0.6638    0.0000 C   0  0  0  0  0  0  0  0  0  0  0  0
    5.7601   -0.0000    0.0000 C   0  0  0  0  0  0  0  0  0  0  0  0
    6.9149   -0.6638    0.0000 C   0  0  0  0  0  0  0  0  0  0  0  0
  1  2  2  0  0  0  0 
  2  3  1  0  0  0  0 
  3  4  2  0  0  0  0 
  4  5  1  0  0  0  0 
  5  6  2  0  0  0  0 
  6  7  1  0  0  0  0 
M  END
> <Name>
2,4-Hexadienal, (2E,4E)-

> <Source>
DSSTox2DMolFile

> <Tox>
3.740

> <CAS>
142-83-6

$$$$

  CDK

 10  9  0  0  0  0  0  0  0  0999 V2000
    5.7596   -0.0000    0.0000 C   0  0  0  0  0  0  0  0  0  0  0  0
    6.9132   -0.6695    0.0000 C   0  0  0  0  0  0  0  0  0  0  0  0
    8.0667   -0.0000    0.0000 O   0  0  0  0  0  0  0  0  0  0  0  0
    6.9132   -2.0006    0.0000 O   0  0  0  0  0  0  0  0  0  0  0  0
    5.7596   -2.6620    0.0000 C   0  0  0  0  0  0  0  0  0  0  0  0
    4.6061   -2.0006    0.0000 C   0  0  0  0  0  0  0  0  0  0  0  0
    3.4606   -2.6620    0.0000 C   0  0  0  0  0  0  0  0  0  0  0  0
    2.3071   -2.0006    0.0000 C   0  0  0  0  0  0  0  0  0  0  0  0
    1.1535   -2.6620    0.0000 C   0  0  0  0  0  0  0  0  0  0  0  0
    0.0000   -2.0006    0.0000 C   0  0  0  0  0  0  0  0  0  0  0  0
  1  2  1  0  0  0  0 
  2  3  2  0  0  0  0 
  2  4  1  0  0  0  0 
  4  5  1  0  0  0  0 
  5  6  1  0  0  0  0 
  6  7  1  0  0  0  0 
  7  8  1  0  0  0  0 
  8  9  1  0  0  0  0 
  9 10  1  0  0  0  0 
M  END
> <Name>
Acetic acid, hexyl ester

> <Source>
DSSTox2DMolFile

> <Tox>
2.991

> <CAS>
142-92-7

$$$$

  CDK

 10  9  0  0  0  0  0  0  0  0999 V2000
    0.0000   -0.6638    0.0000 C   0  0  0  0  0  0  0  0  0  0  0  0
    1.1513   -0.0000    0.0000 C   0  0  0  0  0  0  0  0  0  0  0  0
    2.3027   -0.6638    0.0000 C   0  0  0  0  0  0  0  0  0  0  0  0
    3.4540   -0.0000    0.0000 C   0  0  0  0  0  0  0  0  0  0  0  0
    4.6053   -0.6638    0.0000 C   0  0  0  0  0  0  0  0  0  0  0  0
    5.7670   -0.0000    0.0000 C   0  0  0  0  0  0  0  0  0  0  0  0
    6.9184   -0.6638    0.0000 C   0  0  0  0  0  0  0  0  0  0  0  0
    8.0697   -0.0000    0.0000 C   0  0  0  0  0  0  0  0  0  0  0  0
    9.2210   -0.6638    0.0000 C   0  0  0  0  0  0  0  0  0  0  0  0
   10.3724   -0.0000    0.0000 O   0  0  0  0  0  0  0  0  0  0  0  0
  1  2  1  0  0  0  0 
  2  3  1  0  0  0  0 
  3  4  1  0  0  0  0 
  4  5  1  0  0  0  0 
  5  6  1  0  0  0  0 
  6  7  1  0  0  0  0 
  7  8  1  0  0  0  0 
  8  9  1  0  0  0  0 
  9 10  1  0  0  0  0 
M  END
> <Name>
Nonyl alcohol

> <Source>
DSSTox2DMolFile

> <Tox>
3.855

> <CAS>
143-08-8

$$$$

  CDK

  5  4  0  0  0  0  0  0  0  0999 V2000
    3.4567   -1.9945    0.0000 N   0  0  0  0  0  0  0  0  0  0  0  0
    2.3056   -1.3308    0.0000 C   0  0  0  0  0  0  0  0  0  0  0  0
    2.3056   -0.0000    0.0000 O   0  0  0  0  0  0  0  0  0  0  0  0
    1.1511   -1.9945    0.0000 C   0  0  0  0  0  0  0  0  0  0  0  0
    0.0000   -1.3308    0.0000 I   0  0  0  0  0  0  0  0  0  0  0  0
  1  2  1  0  0  0  0 
  2  3  2  0  0  0  0 
  2  4  1  0  0  0  0 
  4  5  1  0  0  0  0 
M  END
> <Name>
Acetamide, 2-iodo-

> <Source>
DSSTox2DMolFile

> <Tox>
4.854

> <CAS>
144-48-9

$$$$

  CDK

 11 11  0  0  0  0  0  0  0  0999 V2000
    4.6067   -1.9891    0.0000 C   0  0  0  0  0  0  0  0  0  0  0  0
    5.7531   -2.6590    0.0000 C   0  0  0  0  0  0  0  0  0  0  0  0
    3.4533   -2.6590    0.0000 C   0  0  0  0  0  0  0  0  0  0  0  0
    4.6067   -0.6630    0.0000 C   0  0  0  0  0  0  0  0  0  0  0  0
    6.9065   -1.9891    0.0000 O   0  0  0  0  0  0  0  0  0  0  0  0
    3.4533   -3.9851    0.0000 O   0  0  0  0  0  0  0  0  0  0  0  0
    2.2999   -1.9891    0.0000 C   0  0  0  0  0  0  0  0  0  0  0  0
    3.4533   -0.0000    0.0000 C   0  0  0  0  0  0  0  0  0  0  0  0
    1.1534   -2.6590    0.0000 O   0  0  0  0  0  0  0  0  0  0  0  0
    2.2999   -0.6630    0.0000 C   0  0  0  0  0  0  0  0  0  0  0  0
    0.0000   -1.9891    0.0000 C   0  0  0  0  0  0  0  0  0  0  0  0
  1  2  1  0  0  0  0 
  1  3  2  0  0  0  0 
  1  4  1  0  0  0  0 
  2  5  2  0  0  0  0 
  3  6  1  0  0  0  0 
  3  7  1  0  0  0  0 
  8  4  2  0  0  0  0 
  7  9  1  0  0  0  0 
  7 10  2  0  0  0  0 
 10  8  1  0  0  0  0 
  9 11  1  0  0  0  0 
M  END
> <Name>
m-Anisaldehyde, 2-hydroxy- (8CI)

> <Source>
DSSTox2DMolFile

> <Tox>
3.377

> <CAS>
148-53-8

$$$$

  CDK

 10  9  0  0  0  0  0  0  0  0999 V2000
    3.9925   -1.1493    0.0000 O   0  0  0  0  0  0  0  0  0  0  0  0
    2.6577   -1.1493    0.0000 C   0  0  0  0  0  0  0  0  0  0  0  0
    1.9933   -0.0000    0.0000 O   0  0  0  0  0  0  0  0  0  0  0  0
    1.9933   -2.3045    0.0000 C   0  0  0  0  0  0  0  0  0  0  0  0
    2.6577   -3.4538    0.0000 C   0  0  0  0  0  0  0  0  0  0  0  0
    0.6644   -2.3045    0.0000 C   0  0  0  0  0  0  0  0  0  0  0  0
    3.9925   -3.4538    0.0000 C   0  0  0  0  0  0  0  0  0  0  0  0
    0.0000   -3.4538    0.0000 C   0  0  0  0  0  0  0  0  0  0  0  0
    4.6569   -2.3045    0.0000 C   0  0  0  0  0  0  0  0  0  0  0  0
    5.9857   -2.3045    0.0000 C   0  0  0  0  0  0  0  0  0  0  0  0
  1  2  2  0  0  0  0 
  2  3  1  0  0  0  0 
  2  4  1  0  0  0  0 
  4  5  1  0  0  0  0 
  4  6  1  0  0  0  0 
  5  7  1  0  0  0  0 
  6  8  1  0  0  0  0 
  7  9  1  0  0  0  0 
  9 10  1  0  0  0  0 
M  END
> <Name>
Hexanoic acid, 2-ethyl-

> <Source>
DSSTox2DMolFile

> <Tox>
3.076

> <CAS>
149-57-5

$$$$

  CDK

  9  9  0  0  0  0  0  0  0  0999 V2000
    5.7605   -2.6614    0.0000 O   0  0  0  0  0  0  0  0  0  0  0  0
    4.6084   -1.9989    0.0000 C   0  0  0  0  0  0  0  0  0  0  0  0
    3.4563   -2.6614    0.0000 C   0  0  0  0  0  0  0  0  0  0  0  0
    4.6084   -0.6682    0.0000 C   0  0  0  0  0  0  0  0  0  0  0  0
    2.3042   -1.9989    0.0000 C   0  0  0  0  0  0  0  0  0  0  0  0
    3.4563   -0.0000    0.0000 C   0  0  0  0  0  0  0  0  0  0  0  0
    1.1521   -2.6614    0.0000 O   0  0  0  0  0  0  0  0  0  0  0  0
    2.3042   -0.6682    0.0000 C   0  0  0  0  0  0  0  0  0  0  0  0
    0.0000   -1.9989    0.0000 C   0  0  0  0  0  0  0  0  0  0  0  0
  1  2  1  0  0  0  0 
  2  3  2  0  0  0  0 
  2  4  1  0  0  0  0 
  3  5  1  0  0  0  0 
  6  4  2  0  0  0  0 
  5  7  1  0  0  0  0 
  5  8  2  0  0  0  0 
  8  6  1  0  0  0  0 
  7  9  1  0  0  0  0 
M  END
> <Name>
Phenol, 3-methoxy-

> <Source>
DSSTox2DMolFile

> <Tox>
2.670

> <CAS>
150-19-6

$$$$

  CDK

 11 11  0  0  0  0  0  0  0  0999 V2000
    0.3879    1.7998    2.0963 C   0  0  0  0  0  0  0  0  0  0  0  0
    0.8817    3.1226    1.5554 C   0  0  0  0  0  0  0  0  0  0  0  0
    0.3039    0.7968    1.1899 O   0  0  0  0  0  0  0  0  0  0  0  0
    0.0447    1.5175    3.2294 O   0  0  0  0  0  0  0  0  0  0  0  0
    2.3607    3.2436    1.7295 C   0  0  0  0  0  0  0  0  0  0  0  0
    2.8731    3.9948    2.7927 C   0  0  0  0  0  0  0  0  0  0  0  0
    3.2341    2.6301    0.8327 C   0  0  0  0  0  0  0  0  0  0  0  0
    4.2413    4.1315    2.9647 C   0  0  0  0  0  0  0  0  0  0  0  0
    4.6095    2.7508    0.9893 C   0  0  0  0  0  0  0  0  0  0  0  0
    5.1094    3.4997    2.0614 C   0  0  0  0  0  0  0  0  0  0  0  0
    6.4459    3.6707    2.2910 O   0  0  0  0  0  0  0  0  0  0  0  0
  1  2  1  0  0  0  0 
  1  3  1  0  0  0  0 
  1  4  2  0  0  0  0 
  2  5  1  0  0  0  0 
  5  6  2  0  0  0  0 
  7  5  1  0  0  0  0 
  6  8  1  0  0  0  0 
  9  7  2  0  0  0  0 
  8 10  2  0  0  0  0 
 10  9  1  0  0  0  0 
 10 11  1  0  0  0  0 
M  END
> <Name>
2-(4-hydroxyphenyl)acetic acid

> <Source>
NIST3DMolFile

> <Tox>
1.500

> <CAS>
156-38-7

$$$$

  CDK

 10 10  0  0  0  0  0  0  0  0999 V2000
    2.9867    0.0000    0.0000 C   0  0  0  0  0  0  0  0  0  0  0  0
    4.0498    0.0000    0.0000 C   0  0  0  0  0  0  0  0  0  0  0  0
    2.5311    0.8606    0.0000 C   0  0  0  0  0  0  0  0  0  0  0  0
    4.5560    0.8606    0.0000 C   0  0  0  0  0  0  0  0  0  0  0  0
    2.9867    1.6705    0.0000 C   0  0  0  0  0  0  0  0  0  0  0  0
    1.5187    0.8606    0.0000 C   0  0  0  0  0  0  0  0  0  0  0  0
    4.0498    1.6705    0.0000 C   0  0  0  0  0  0  0  0  0  0  0  0
    5.5684    0.8606    0.0000 Cl  0  0  0  0  0  0  0  0  0  0  0  0
    1.0631    1.6705    0.0000 C   0  0  0  0  0  0  0  0  0  0  0  0
    0.0000    1.6705    0.0000 N   0  0  0  0  0  0  0  0  0  0  0  0
  2  1  2  0  0  0  0 
  1  3  1  0  0  0  0 
  4  2  1  0  0  0  0 
  3  5  2  0  0  0  0 
  3  6  1  0  0  0  0 
  7  4  2  0  0  0  0 
  4  8  1  0  0  0  0 
  5  7  1  0  0  0  0 
  6  9  1  0  0  0  0 
 10  9  1  0  0  0  0 
M  END
> <Name>
4-Chlorobenzeneethanamine

> <Source>
NIST2DMolFile

> <Tox>
3.140

> <CAS>
156-41-2

$$$$

  CDK

  5  4  0  0  0  0  0  0  0  0999 V2000
   -1.3683   -0.5451   -0.2629 C   0  0  0  0  0  0  0  0  0  0  0  0
    0.0416   -0.6569    0.3110 C   0  0  0  0  0  0  0  0  0  0  0  0
   -1.9463    0.6493    0.2123 O   0  0  0  0  0  0  0  0  0  0  0  0
    1.0200    0.2723   -0.4043 C   0  0  0  0  0  0  0  0  0  0  0  0
    2.4002    0.2157    0.1084 N   0  0  0  0  0  0  0  0  0  0  0  0
  1  2  1  0  0  0  0 
  1  3  1  0  0  0  0 
  2  4  1  0  0  0  0 
  4  5  1  0  0  0  0 
M  END
> <Name>
1-Propanol, 3-amino-

> <Source>
DougDB3DMolFile

> <Tox>
1.308

> <CAS>
156-87-6

$$$$

  CDK

 14 16  0  0  0  0  0  0  0  0999 V2000
    2.7682   -0.8984    0.0000 N   0  0  0  0  0  0  0  0  0  0  0  0
    1.4241   -0.8210    0.0000 C   0  0  0  0  0  0  0  0  0  0  0  0
    3.4787    0.2480   -0.0001 C   0  0  0  0  0  0  0  0  0  0  0  0
    0.7204    0.4021    0.0000 C   0  0  0  0  0  0  0  0  0  0  0  0
    0.6973   -1.9981    0.0000 C   0  0  0  0  0  0  0  0  0  0  0  0
    2.9073    1.4990    0.0000 C   0  0  0  0  0  0  0  0  0  0  0  0
   -0.7203    0.4021    0.0000 C   0  0  0  0  0  0  0  0  0  0  0  0
    1.5196    1.5685    0.0001 C   0  0  0  0  0  0  0  0  0  0  0  0
   -0.6973   -1.9981    0.0000 C   0  0  0  0  0  0  0  0  0  0  0  0
   -1.4240   -0.8210    0.0001 C   0  0  0  0  0  0  0  0  0  0  0  0
   -1.5197    1.5685    0.0000 C   0  0  0  0  0  0  0  0  0  0  0  0
   -2.7682   -0.8984    0.0000 N   0  0  0  0  0  0  0  0  0  0  0  0
   -2.9073    1.4989   -0.0001 C   0  0  0  0  0  0  0  0  0  0  0  0
   -3.4787    0.2480   -0.0001 C   0  0  0  0  0  0  0  0  0  0  0  0
  1  2  1  0  0  0  0 
  1  3  2  0  0  0  0 
  4  2  2  0  0  0  0 
  2  5  1  0  0  0  0 
  6  3  1  0  0  0  0 
  4  7  1  0  0  0  0 
  4  8  1  0  0  0  0 
  5  9  2  0  0  0  0 
  8  6  2  0  0  0  0 
  7 10  2  0  0  0  0 
  7 11  1  0  0  0  0 
 10  9  1  0  0  0  0 
 12 10  1  0  0  0  0 
 11 13  2  0  0  0  0 
 12 14  2  0  0  0  0 
 13 14  1  0  0  0  0 
M  END
> <Name>
4,7-phenanthroline

> <Source>
Chemidplus3DMolFile

> <Tox>
4.140

> <CAS>
230-07-9

$$$$

  CDK

 14 16  0  0  0  0  0  0  0  0999 V2000
   -4.4755   -0.6958    1.8763 N   0  0  0  0  0  0  0  0  0  0  0  0
   -3.9308    0.4299    2.3915 C   0  0  0  0  0  0  0  0  0  0  0  0
   -5.7151   -1.0699    2.2667 C   0  0  0  0  0  0  0  0  0  0  0  0
   -2.6394    0.8610    2.0146 C   0  0  0  0  0  0  0  0  0  0  0  0
   -4.6514    1.2044    3.3271 C   0  0  0  0  0  0  0  0  0  0  0  0
   -6.4807   -0.3704    3.1724 C   0  0  0  0  0  0  0  0  0  0  0  0
   -2.0860    2.0452    2.5671 C   0  0  0  0  0  0  0  0  0  0  0  0
   -1.8556    0.1429    1.0861 C   0  0  0  0  0  0  0  0  0  0  0  0
   -4.0973    2.3710    3.8666 C   0  0  0  0  0  0  0  0  0  0  0  0
   -5.9338    0.7846    3.7074 C   0  0  0  0  0  0  0  0  0  0  0  0
   -2.8260    2.7875    3.4898 C   0  0  0  0  0  0  0  0  0  0  0  0
   -0.8009    2.4665    2.1866 C   0  0  0  0  0  0  0  0  0  0  0  0
   -0.5795    0.5739    0.7172 C   0  0  0  0  0  0  0  0  0  0  0  0
   -0.0527    1.7350    1.2672 C   0  0  0  0  0  0  0  0  0  0  0  0
  1  2  1  0  0  0  0 
  1  3  2  0  0  0  0 
  4  2  1  0  0  0  0 
  2  5  2  0  0  0  0 
  6  3  1  0  0  0  0 
  4  7  1  0  0  0  0 
  4  8  2  0  0  0  0 
  5  9  1  0  0  0  0 
  5 10  1  0  0  0  0 
 10  6  2  0  0  0  0 
  7 11  1  0  0  0  0 
  7 12  2  0  0  0  0 
  8 13  1  0  0  0  0 
 11  9  2  0  0  0  0 
 12 14  1  0  0  0  0 
 13 14  2  0  0  0  0 
M  END
> <Name>
Benzo(h)quinoline

> <Source>
Chemidplus3DMolFile

> <Tox>
4.310

> <CAS>
230-27-3

$$$$

  CDK

 14 16  0  0  0  0  0  0  0  0999 V2000
   -0.5465    3.9027    2.9492 N   0  0  0  0  0  0  0  0  0  0  0  0
   -1.4663    2.9541    3.2394 C   0  0  0  0  0  0  0  0  0  0  0  0
   -0.5387    5.0543    3.6585 C   0  0  0  0  0  0  0  0  0  0  0  0
   -1.5195    1.7326    2.5303 C   0  0  0  0  0  0  0  0  0  0  0  0
   -2.4041    3.1655    4.2693 C   0  0  0  0  0  0  0  0  0  0  0  0
   -1.4201    5.3362    4.6783 C   0  0  0  0  0  0  0  0  0  0  0  0
   -2.4817    0.7423    2.8361 C   0  0  0  0  0  0  0  0  0  0  0  0
   -0.6218    1.4362    1.4867 C   0  0  0  0  0  0  0  0  0  0  0  0
   -3.3543    2.1858    4.5700 C   0  0  0  0  0  0  0  0  0  0  0  0
   -2.3663    4.3714    4.9839 C   0  0  0  0  0  0  0  0  0  0  0  0
   -2.5535   -0.4291    2.1769 N   0  0  0  0  0  0  0  0  0  0  0  0
   -3.3844    0.9919    3.8559 C   0  0  0  0  0  0  0  0  0  0  0  0
   -0.6904    0.2296    0.8029 C   0  0  0  0  0  0  0  0  0  0  0  0
   -1.6681   -0.6622    1.1843 C   0  0  0  0  0  0  0  0  0  0  0  0
  1  2  1  0  0  0  0 
  1  3  2  0  0  0  0 
  4  2  1  0  0  0  0 
  2  5  2  0  0  0  0 
  6  3  1  0  0  0  0 
  4  7  2  0  0  0  0 
  4  8  1  0  0  0  0 
  5  9  1  0  0  0  0 
  5 10  1  0  0  0  0 
 10  6  2  0  0  0  0 
 11  7  1  0  0  0  0 
  7 12  1  0  0  0  0 
  8 13  2  0  0  0  0 
  9 12  2  0  0  0  0 
 11 14  2  0  0  0  0 
 13 14  1  0  0  0  0 
M  END
> <Name>
1,7-Phenanthroline

> <Source>
Chemidplus3DMolFile

> <Tox>
4.070

> <CAS>
230-46-6

$$$$

  CDK

 10 11  0  0  0  0  0  0  0  0999 V2000
    1.2408   -1.3601    0.0000 C   0  0  0  0  0  0  0  0  0  0  0  0
    2.3732   -0.6666    0.0000 N   0  0  0  0  0  0  0  0  0  0  0  0
   -0.0312   -0.7039    0.0000 C   0  0  0  0  0  0  0  0  0  0  0  0
    2.3732    0.6665    0.0000 N   0  0  0  0  0  0  0  0  0  0  0  0
   -0.0312    0.7039    0.0000 C   0  0  0  0  0  0  0  0  0  0  0  0
   -1.2588   -1.4057    0.0000 C   0  0  0  0  0  0  0  0  0  0  0  0
    1.2408    1.3602    0.0000 C   0  0  0  0  0  0  0  0  0  0  0  0
   -1.2588    1.4057    0.0000 C   0  0  0  0  0  0  0  0  0  0  0  0
   -2.4398   -0.7061    0.0000 C   0  0  0  0  0  0  0  0  0  0  0  0
   -2.4398    0.7061    0.0000 C   0  0  0  0  0  0  0  0  0  0  0  0
  1  2  1  0  0  0  0 
  1  3  2  0  0  0  0 
  2  4  2  0  0  0  0 
  5  3  1  0  0  0  0 
  6  3  1  0  0  0  0 
  4  7  1  0  0  0  0 
  7  5  2  0  0  0  0 
  5  8  1  0  0  0  0 
  9  6  2  0  0  0  0 
  8 10  2  0  0  0  0 
 10  9  1  0  0  0  0 
M  END
> <Name>
Phthalazine

> <Source>
DougDB3DMolFile

> <Tox>
2.660

> <CAS>
253-52-1

$$$$

  CDK

 10 11  0  0  0  0  0  0  0  0999 V2000
    1.7401    1.4915    0.0000 C   0  0  0  0  0  0  0  0  0  0  0  0
    1.7401    0.4972    0.0000 C   0  0  0  0  0  0  0  0  0  0  0  0
    0.8949    1.9886    0.0000 C   0  0  0  0  0  0  0  0  0  0  0  0
    2.5852    1.9886    0.0000 N   0  0  0  0  0  0  0  0  0  0  0  0
    2.5852    0.0000    0.0000 C   0  0  0  0  0  0  0  0  0  0  0  0
    0.8949    0.0000    0.0000 C   0  0  0  0  0  0  0  0  0  0  0  0
    0.0000    1.4915    0.0000 C   0  0  0  0  0  0  0  0  0  0  0  0
    3.4801    1.4915    0.0000 C   0  0  0  0  0  0  0  0  0  0  0  0
    3.4801    0.4972    0.0000 N   0  0  0  0  0  0  0  0  0  0  0  0
    0.0000    0.4972    0.0000 C   0  0  0  0  0  0  0  0  0  0  0  0
  1  2  1  0  0  0  0 
  3  1  1  0  0  0  0 
  1  4  2  0  0  0  0 
  5  2  2  0  0  0  0 
  2  6  1  0  0  0  0 
  7  3  2  0  0  0  0 
  4  8  1  0  0  0  0 
  9  5  1  0  0  0  0 
  6 10  2  0  0  0  0 
 10  7  1  0  0  0  0 
  8  9  2  0  0  0  0 
M  END
> <Name>
quinazoline

> <Source>
NIST2DMolFile

> <Tox>
2.710

> <CAS>
253-82-7

$$$$

  CDK

 14 16  0  0  0  0  0  0  0  0999 V2000
   -2.4755    1.4035    0.0000 C   0  0  0  0  0  0  0  0  0  0  0  0
   -3.6276    0.6808    0.0000 C   0  0  0  0  0  0  0  0  0  0  0  0
   -1.2066    0.7411    0.0000 C   0  0  0  0  0  0  0  0  0  0  0  0
   -3.5945   -0.7450    0.0000 C   0  0  0  0  0  0  0  0  0  0  0  0
   -1.1756   -0.6842    0.0000 C   0  0  0  0  0  0  0  0  0  0  0  0
    0.0000    1.4448    0.0000 C   0  0  0  0  0  0  0  0  0  0  0  0
   -2.4122   -1.4174    0.0000 C   0  0  0  0  0  0  0  0  0  0  0  0
    0.0000   -1.3679    0.0000 N   0  0  0  0  0  0  0  0  0  0  0  0
    1.2067    0.7411    0.0000 C   0  0  0  0  0  0  0  0  0  0  0  0
    1.1757   -0.6842    0.0000 C   0  0  0  0  0  0  0  0  0  0  0  0
    2.4755    1.4036    0.0000 C   0  0  0  0  0  0  0  0  0  0  0  0
    2.4122   -1.4175    0.0000 C   0  0  0  0  0  0  0  0  0  0  0  0
    3.6275    0.6807    0.0000 C   0  0  0  0  0  0  0  0  0  0  0  0
    3.5944   -0.7450    0.0000 C   0  0  0  0  0  0  0  0  0  0  0  0
  1  2  1  0  0  0  0 
  1  3  2  0  0  0  0 
  2  4  2  0  0  0  0 
  5  3  1  0  0  0  0 
  6  3  1  0  0  0  0 
  4  7  1  0  0  0  0 
  7  5  2  0  0  0  0 
  5  8  1  0  0  0  0 
  9  6  2  0  0  0  0 
  8 10  2  0  0  0  0 
 10  9  1  0  0  0  0 
 11  9  1  0  0  0  0 
 10 12  1  0  0  0  0 
 13 11  2  0  0  0  0 
 12 14  2  0  0  0  0 
 14 13  1  0  0  0  0 
M  END
> <Name>
Acridine

> <Source>
DougDB3DMolFile

> <Tox>
4.400

> <CAS>
260-94-6

$$$$

  CDK

  9 10  0  0  0  0  0  0  0  0999 V2000
    0.7831   -0.2523    0.0000 C   0  0  0  0  0  0  0  0  0  0  0  0
    0.0000   -1.3269    0.0000 C   0  0  0  0  0  0  0  0  0  0  0  0
    2.0448   -0.6613    0.0000 C   0  0  0  0  0  0  0  0  0  0  0  0
    0.7831   -2.4059    0.0000 O   0  0  0  0  0  0  0  0  0  0  0  0
    2.0448   -1.9926    0.0000 C   0  0  0  0  0  0  0  0  0  0  0  0
    3.1977   -0.0000    0.0000 C   0  0  0  0  0  0  0  0  0  0  0  0
    3.1977   -2.6582    0.0000 C   0  0  0  0  0  0  0  0  0  0  0  0
    4.3506   -0.6613    0.0000 C   0  0  0  0  0  0  0  0  0  0  0  0
    4.3506   -1.9926    0.0000 C   0  0  0  0  0  0  0  0  0  0  0  0
  1  2  2  0  0  0  0 
  1  3  1  0  0  0  0 
  2  4  1  0  0  0  0 
  5  3  2  0  0  0  0 
  3  6  1  0  0  0  0 
  4  5  1  0  0  0  0 
  5  7  1  0  0  0  0 
  6  8  2  0  0  0  0 
  9  7  2  0  0  0  0 
  8  9  1  0  0  0  0 
M  END
> <Name>
Benzofuran

> <Source>
DSSTox2DMolFile

> <Tox>
2.890

> <CAS>
271-89-6

$$$$

  CDK

  5  5  0  0  0  0  0  0  0  0999 V2000
   -1.0695   -0.2981    0.0000 N   0  0  0  0  0  0  0  0  0  0  0  0
   -0.0334   -1.1688    0.0000 N   0  0  0  0  0  0  0  0  0  0  0  0
   -0.6203    1.0176    0.0000 C   0  0  0  0  0  0  0  0  0  0  0  0
    1.1098   -0.4328    0.0000 C   0  0  0  0  0  0  0  0  0  0  0  0
    0.7721    0.9452    0.0000 C   0  0  0  0  0  0  0  0  0  0  0  0
  1  2  1  0  0  0  0 
  1  3  1  0  0  0  0 
  2  4  2  0  0  0  0 
  5  3  2  0  0  0  0 
  4  5  1  0  0  0  0 
M  END
> <Name>
1H-Pyrazole

> <Source>
DougDB3DMolFile

> <Tox>
1.290

> <CAS>
288-13-1

$$$$

  CDK

  5  5  0  0  0  0  0  0  0  0999 V2000
    2.0359   -1.0904    0.0000 N   0  0  0  0  0  0  0  0  0  0  0  0
    1.2657   -2.1636    0.0000 C   0  0  0  0  0  0  0  0  0  0  0  0
    1.2657   -0.0000    0.0000 C   0  0  0  0  0  0  0  0  0  0  0  0
    0.0000   -1.7460    0.0000 N   0  0  0  0  0  0  0  0  0  0  0  0
    0.0000   -0.4176    0.0000 C   0  0  0  0  0  0  0  0  0  0  0  0
  1  2  2  0  0  0  0 
  1  3  1  0  0  0  0 
  4  2  1  0  0  0  0 
  3  5  2  0  0  0  0 
  4  5  1  0  0  0  0 
M  END
> <Name>
1H-Imidazole

> <Source>
DSSTox2DMolFile

> <Tox>
2.000

> <CAS>
288-32-4

$$$$

  CDK

  6  6  0  0  0  0  0  0  0  0999 V2000
    1.0469    1.5883    1.8549 C   0  0  0  0  0  0  0  0  0  0  0  0
    2.2257    0.8480    1.7834 C   0  0  0  0  0  0  0  0  0  0  0  0
    0.8899    2.6545    0.9722 C   0  0  0  0  0  0  0  0  0  0  0  0
    3.1744    1.2200    0.8334 C   0  0  0  0  0  0  0  0  0  0  0  0
    1.8635    2.9614    0.0663 N   0  0  0  0  0  0  0  0  0  0  0  0
    2.9519    2.2776    0.0000 N   0  0  0  0  0  0  0  0  0  0  0  0
  2  1  2  0  0  0  0 
  1  3  1  0  0  0  0 
  4  2  1  0  0  0  0 
  3  5  2  0  0  0  0 
  6  4  2  0  0  0  0 
  5  6  1  0  0  0  0 
M  END
> <Name>
pyridazine

> <Source>
NIST3DMolFile

> <Tox>
1.590

> <CAS>
289-80-5

$$$$

  CDK

  6  6  0  0  0  0  0  0  0  0999 V2000
    0.9722    1.8307    0.1837 C   0  0  0  0  0  0  0  0  0  0  0  0
    2.1580    1.0949    0.1747 C   0  0  0  0  0  0  0  0  0  0  0  0
    1.0643    3.2218    0.1236 C   0  0  0  0  0  0  0  0  0  0  0  0
    3.3583    1.7181    0.1095 N   0  0  0  0  0  0  0  0  0  0  0  0
    2.2709    3.8329    0.0587 N   0  0  0  0  0  0  0  0  0  0  0  0
    3.3952    3.0733    0.0527 C   0  0  0  0  0  0  0  0  0  0  0  0
  2  1  2  0  0  0  0 
  1  3  1  0  0  0  0 
  4  2  1  0  0  0  0 
  3  5  2  0  0  0  0 
  6  4  2  0  0  0  0 
  5  6  1  0  0  0  0 
M  END
> <Name>
pyrimidine

> <Source>
NIST3DMolFile

> <Tox>
1.250

> <CAS>
289-95-2

$$$$

  CDK

  6  6  0  0  0  0  0  0  0  0999 V2000
    0.9520    1.0468    1.8281 C   0  0  0  0  0  0  0  0  0  0  0  0
    0.9284    0.3277    0.6270 C   0  0  0  0  0  0  0  0  0  0  0  0
    2.1285    1.4246    2.3795 N   0  0  0  0  0  0  0  0  0  0  0  0
    2.0818    0.0000    0.0000 N   0  0  0  0  0  0  0  0  0  0  0  0
    3.2819    1.0969    1.7525 C   0  0  0  0  0  0  0  0  0  0  0  0
    3.2585    0.3778    0.5514 C   0  0  0  0  0  0  0  0  0  0  0  0
  2  1  2  0  0  0  0 
  1  3  1  0  0  0  0 
  4  2  1  0  0  0  0 
  3  5  2  0  0  0  0 
  6  4  2  0  0  0  0 
  5  6  1  0  0  0  0 
M  END
> <Name>
Pyrazine

> <Source>
NIST3DMolFile

> <Tox>
1.180

> <CAS>
290-37-9

$$$$

  CDK

  9  9  0  0  0  0  0  0  0  0999 V2000
    0.0510   -0.0099    0.4074 C   0  0  0  0  0  0  0  0  0  0  0  0
   -0.6506   -1.1992    0.2006 C   0  0  0  0  0  0  0  0  0  0  0  0
   -0.5951    1.2118    0.2170 C   0  0  0  0  0  0  0  0  0  0  0  0
    1.4850   -0.0487    0.8318 C   0  0  0  0  0  0  0  0  0  0  0  0
   -1.9837   -1.1649   -0.1907 C   0  0  0  0  0  0  0  0  0  0  0  0
   -1.9291    1.2421   -0.1748 C   0  0  0  0  0  0  0  0  0  0  0  0
    2.3745   -0.3861   -0.3158 C   0  0  0  0  0  0  0  0  0  0  0  0
   -2.6246    0.0554   -0.3786 C   0  0  0  0  0  0  0  0  0  0  0  0
    3.4875    0.2834   -0.5903 C   0  0  0  0  0  0  0  0  0  0  0  0
  1  2  1  0  0  0  0 
  1  3  2  0  0  0  0 
  1  4  1  0  0  0  0 
  2  5  2  0  0  0  0 
  6  3  1  0  0  0  0 
  4  7  1  0  0  0  0 
  5  8  1  0  0  0  0 
  8  6  2  0  0  0  0 
  7  9  2  0  0  0  0 
M  END
> <Name>
Benzene, 2-propenyl-

> <Source>
DougDB3DMolFile

> <Tox>
3.190

> <CAS>
300-57-2

$$$$

  CDK

 12 12  0  0  0  0  0  0  0  0999 V2000
    0.0285    0.6285    0.0000 C   0  0  0  0  0  0  0  0  0  0  0  0
   -1.1835   -0.0696    0.0000 C   0  0  0  0  0  0  0  0  0  0  0  0
    1.2053   -0.1340    0.0000 C   0  0  0  0  0  0  0  0  0  0  0  0
    0.2061    1.9675    0.0000 O   0  0  0  0  0  0  0  0  0  0  0  0
   -1.2278   -1.4515    0.0000 C   0  0  0  0  0  0  0  0  0  0  0  0
   -2.9095    0.8744    0.0000 I   0  0  0  0  0  0  0  0  0  0  0  0
    1.2002   -1.5097    0.0000 C   0  0  0  0  0  0  0  0  0  0  0  0
    2.9184    0.8215    0.0000 I   0  0  0  0  0  0  0  0  0  0  0  0
   -0.0330   -2.1863    0.0000 C   0  0  0  0  0  0  0  0  0  0  0  0
   -0.0684   -3.6794    0.0000 N   0  0  0  0  0  0  0  0  0  0  0  0
   -1.1414   -4.2506    0.0000 O   0  0  0  0  0  0  0  0  0  0  0  0
    0.9758   -4.3008    0.0000 O   0  0  0  0  0  0  0  0  0  0  0  0
  1  2  1  0  0  0  0 
  1  3  2  0  0  0  0 
  1  4  1  0  0  0  0 
  2  5  2  0  0  0  0 
  2  6  1  0  0  0  0 
  7  3  1  0  0  0  0 
  3  8  1  0  0  0  0 
  5  9  1  0  0  0  0 
  9  7  2  0  0  0  0 
  9 10  1  0  0  0  0 
 10 11  2  0  0  0  0 
 10 12  1  0  0  0  0 
M  CHG  1  10   1
M  CHG  1  12  -1
M  END
> <Name>
Phenol, 2,6-diiodo-4-nitro-

> <Source>
DougDB3DMolFile

> <Tox>
4.810

> <CAS>
305-85-1

$$$$

  CDK

 13 13  0  0  0  0  0  0  0  0999 V2000
    3.0030    0.9009    0.0000 C   0  0  0  0  0  0  0  0  0  0  0  0
    2.0020    0.9009    0.0000 C   0  0  0  0  0  0  0  0  0  0  0  0
    3.4035    1.7518    0.0000 C   0  0  0  0  0  0  0  0  0  0  0  0
    3.4535    0.0000    0.0000 F   0  0  0  0  0  0  0  0  0  0  0  0
    1.5015    1.7518    0.0000 C   0  0  0  0  0  0  0  0  0  0  0  0
    1.4515    0.0501    0.0000 F   0  0  0  0  0  0  0  0  0  0  0  0
    3.0030    2.6527    0.0000 C   0  0  0  0  0  0  0  0  0  0  0  0
    4.4045    1.7518    0.0000 F   0  0  0  0  0  0  0  0  0  0  0  0
    2.0020    2.6527    0.0000 C   0  0  0  0  0  0  0  0  0  0  0  0
    0.5005    1.7518    0.0000 N   0  0  0  0  0  0  0  0  0  0  0  0
    1.4515    3.5036    0.0000 F   0  0  0  0  0  0  0  0  0  0  0  0
    0.0000    0.9009    0.0000 O   0  0  0  0  0  0  0  0  0  0  0  0
    0.0000    2.6527    0.0000 O   0  0  0  0  0  0  0  0  0  0  0  0
  2  1  2  0  0  0  0 
  1  3  1  0  0  0  0 
  1  4  1  0  0  0  0 
  5  2  1  0  0  0  0 
  2  6  1  0  0  0  0 
  3  7  2  0  0  0  0 
  3  8  1  0  0  0  0 
  9  5  2  0  0  0  0 
  5 10  1  0  0  0  0 
  7  9  1  0  0  0  0 
  9 11  1  0  0  0  0 
 10 12  2  0  0  0  0 
 10 13  2  0  0  0  0 
M  END
> <Name>
1,2,3,5-Tetrafluoro-4-nitrobenzene

> <Source>
NIST2DMolFile

> <Tox>
4.870

> <CAS>
314-41-0

$$$$

  CDK

 12 12  0  0  0  0  0  0  0  0999 V2000
    2.0988    1.2127    0.0000 C   0  0  0  0  0  0  0  0  0  0  0  0
    2.7984    0.0000    0.0000 O   0  0  0  0  0  0  0  0  0  0  0  0
    0.6996    1.2127    0.0000 C   0  0  0  0  0  0  0  0  0  0  0  0
    2.7984    2.4253    0.0000 C   0  0  0  0  0  0  0  0  0  0  0  0
    0.0000    0.0000    0.0000 F   0  0  0  0  0  0  0  0  0  0  0  0
    0.0000    2.4253    0.0000 C   0  0  0  0  0  0  0  0  0  0  0  0
    2.0988    3.6380    0.0000 C   0  0  0  0  0  0  0  0  0  0  0  0
    4.1977    2.4253    0.0000 N   0  0  0  0  0  0  0  0  0  0  0  0
    0.6996    3.6380    0.0000 C   0  0  0  0  0  0  0  0  0  0  0  0
    4.8973    3.6380    0.0000 O   0  0  0  0  0  0  0  0  0  0  0  0
    4.8973    1.2127    0.0000 O   0  0  0  0  0  0  0  0  0  0  0  0
    0.0000    4.8506    0.0000 Br  0  0  0  0  0  0  0  0  0  0  0  0
  1  2  1  0  0  0  0 
  1  3  2  0  0  0  0 
  1  4  1  0  0  0  0 
  3  5  1  0  0  0  0 
  3  6  1  0  0  0  0 
  7  4  2  0  0  0  0 
  4  8  1  0  0  0  0 
  6  9  2  0  0  0  0 
  9  7  1  0  0  0  0 
  8 10  2  0  0  0  0 
  8 11  1  0  0  0  0 
  9 12  1  0  0  0  0 
M  CHG  1   8   1
M  CHG  1  11  -1
M  END
> <Name>
2-Fluoro-4-bromo-6-nitrophenol

> <Source>
IndexNet2DMolFile

> <Tox>
4.620

> <CAS>
320-76-3

$$$$

  CDK

 11 11  0  0  0  0  0  0  0  0999 V2000
    2.6290    0.5056    0.0000 C   0  0  0  0  0  0  0  0  0  0  0  0
    2.6290    1.5168    0.0000 C   0  0  0  0  0  0  0  0  0  0  0  0
    1.7695    0.0506    0.0000 C   0  0  0  0  0  0  0  0  0  0  0  0
    1.7695    1.9718    0.0000 C   0  0  0  0  0  0  0  0  0  0  0  0
    3.4885    2.0223    0.0000 O   0  0  0  0  0  0  0  0  0  0  0  0
    0.9101    0.5056    0.0000 C   0  0  0  0  0  0  0  0  0  0  0  0
    0.9101    1.5168    0.0000 C   0  0  0  0  0  0  0  0  0  0  0  0
    1.7695    2.9829    0.0000 C   0  0  0  0  0  0  0  0  0  0  0  0
    0.0000    0.0000    0.0000 Cl  0  0  0  0  0  0  0  0  0  0  0  0
    2.6796    3.4885    0.0000 O   0  0  0  0  0  0  0  0  0  0  0  0
    0.9101    3.4885    0.0000 O   0  0  0  0  0  0  0  0  0  0  0  0
  2  1  2  0  0  0  0 
  1  3  1  0  0  0  0 
  4  2  1  0  0  0  0 
  2  5  1  0  0  0  0 
  3  6  2  0  0  0  0 
  7  4  2  0  0  0  0 
  4  8  1  0  0  0  0 
  6  7  1  0  0  0  0 
  6  9  1  0  0  0  0 
  8 10  2  0  0  0  0 
  8 11  1  0  0  0  0 
M  END
> <Name>
Benzoic acid, 5-chloro-2-hydroxy-

> <Source>
NIST2DMolFile

> <Tox>
2.600

> <CAS>
321-14-2

$$$$

  CDK

 11 12  0  0  0  0  0  0  0  0999 V2000
    2.5864    1.9896    0.0000 C   0  0  0  0  0  0  0  0  0  0  0  0
    2.5864    2.9844    0.0000 F   0  0  0  0  0  0  0  0  0  0  0  0
    1.7409    1.4922    0.0000 C   0  0  0  0  0  0  0  0  0  0  0  0
    3.4818    1.4922    0.0000 C   0  0  0  0  0  0  0  0  0  0  0  0
    1.7409    0.4974    0.0000 C   0  0  0  0  0  0  0  0  0  0  0  0
    0.8953    1.9896    0.0000 C   0  0  0  0  0  0  0  0  0  0  0  0
    3.4818    0.4974    0.0000 C   0  0  0  0  0  0  0  0  0  0  0  0
    2.5864    0.0000    0.0000 C   0  0  0  0  0  0  0  0  0  0  0  0
    0.8953    0.0000    0.0000 C   0  0  0  0  0  0  0  0  0  0  0  0
    0.0000    1.4922    0.0000 C   0  0  0  0  0  0  0  0  0  0  0  0
    0.0000    0.4974    0.0000 C   0  0  0  0  0  0  0  0  0  0  0  0
  1  2  1  0  0  0  0 
  3  1  2  0  0  0  0 
  1  4  1  0  0  0  0 
  3  5  1  0  0  0  0 
  6  3  1  0  0  0  0 
  4  7  2  0  0  0  0 
  8  5  2  0  0  0  0 
  5  9  1  0  0  0  0 
 10  6  2  0  0  0  0 
  7  8  1  0  0  0  0 
  9 11  2  0  0  0  0 
 11 10  1  0  0  0  0 
M  END
> <Name>
1-fluoronaphthalene

> <Source>
NIST2DMolFile

> <Tox>
3.390

> <CAS>
321-38-0

$$$$

  CDK

 13 14  0  0  0  0  0  0  0  0999 V2000
    5.0399    0.8568    0.0000 C   0  0  0  0  0  0  0  0  0  0  0  0
    6.0478    0.8568    0.0000 F   0  0  0  0  0  0  0  0  0  0  0  0
    4.5359    0.0000    0.0000 C   0  0  0  0  0  0  0  0  0  0  0  0
    4.5359    1.7136    0.0000 C   0  0  0  0  0  0  0  0  0  0  0  0
    3.5279    0.0000    0.0000 C   0  0  0  0  0  0  0  0  0  0  0  0
    3.5279    1.7136    0.0000 C   0  0  0  0  0  0  0  0  0  0  0  0
    3.0239    0.8568    0.0000 C   0  0  0  0  0  0  0  0  0  0  0  0
    2.0159    0.8568    0.0000 C   0  0  0  0  0  0  0  0  0  0  0  0
    1.5120    1.7136    0.0000 C   0  0  0  0  0  0  0  0  0  0  0  0
    1.5120    0.0000    0.0000 C   0  0  0  0  0  0  0  0  0  0  0  0
    0.5040    1.7136    0.0000 C   0  0  0  0  0  0  0  0  0  0  0  0
    0.5040    0.0000    0.0000 C   0  0  0  0  0  0  0  0  0  0  0  0
    0.0000    0.8568    0.0000 C   0  0  0  0  0  0  0  0  0  0  0  0
  1  2  1  0  0  0  0 
  3  1  2  0  0  0  0 
  1  4  1  0  0  0  0 
  5  3  1  0  0  0  0 
  4  6  2  0  0  0  0 
  7  5  2  0  0  0  0 
  6  7  1  0  0  0  0 
  7  8  1  0  0  0  0 
  8  9  2  0  0  0  0 
 10  8  1  0  0  0  0 
  9 11  1  0  0  0  0 
 12 10  2  0  0  0  0 
 11 13  2  0  0  0  0 
 13 12  1  0  0  0  0 
M  END
> <Name>
1-fluoro-4-phenylbenzene

> <Source>
NIST2DMolFile

> <Tox>
3.530

> <CAS>
324-74-3

$$$$

  CDK

 14 14  0  0  0  0  0  0  0  0999 V2000
   -1.2038    1.2099    0.0321 C   0  0  0  0  0  0  0  0  0  0  0  0
   -1.2135   -0.2009    0.0220 C   0  0  0  0  0  0  0  0  0  0  0  0
    0.0000    1.9219   -0.0007 C   0  0  0  0  0  0  0  0  0  0  0  0
   -2.3502    1.8887    0.0884 F   0  0  0  0  0  0  0  0  0  0  0  0
    0.0000   -0.8915    0.0001 C   0  0  0  0  0  0  0  0  0  0  0  0
   -2.5071   -0.9787    0.0309 N   0  0  0  0  0  0  0  0  0  0  0  0
    1.2038    1.2101   -0.0330 C   0  0  0  0  0  0  0  0  0  0  0  0
    1.2132   -0.2006   -0.0219 C   0  0  0  0  0  0  0  0  0  0  0  0
   -3.4602   -0.5304   -0.5630 O   0  0  0  0  0  0  0  0  0  0  0  0
   -2.5357   -2.0338    0.6263 O   0  0  0  0  0  0  0  0  0  0  0  0
    2.3504    1.8887   -0.0895 F   0  0  0  0  0  0  0  0  0  0  0  0
    2.5072   -0.9780   -0.0302 N   0  0  0  0  0  0  0  0  0  0  0  0
    3.4566   -0.5336    0.5726 O   0  0  0  0  0  0  0  0  0  0  0  0
    2.5394   -2.0280   -0.6341 O   0  0  0  0  0  0  0  0  0  0  0  0
  1  2  1  0  0  0  0 
  1  3  2  0  0  0  0 
  1  4  1  0  0  0  0 
  2  5  2  0  0  0  0 
  2  6  1  0  0  0  0 
  7  3  1  0  0  0  0 
  5  8  1  0  0  0  0 
  6  9  2  0  0  0  0 
  6 10  1  0  0  0  0 
  8  7  2  0  0  0  0 
  7 11  1  0  0  0  0 
  8 12  1  0  0  0  0 
 12 13  2  0  0  0  0 
 12 14  1  0  0  0  0 
M  CHG  1   6   1
M  CHG  1  10  -1
M  CHG  1  12   1
M  CHG  1  14  -1
M  END
> <Name>
Benzene, 1,5-difluoro-2,4-dinitro-

> <Source>
DougDB3DMolFile

> <Tox>
5.080

> <CAS>
327-92-4

$$$$

  CDK

 13 13  0  0  0  0  0  0  0  0999 V2000
    4.6563   -0.0000    0.0000 O   0  0  0  0  0  0  0  0  0  0  0  0
    3.9911   -1.1574    0.0000 C   0  0  0  0  0  0  0  0  0  0  0  0
    4.6563   -2.3082    0.0000 C   0  0  0  0  0  0  0  0  0  0  0  0
    2.6607   -1.1574    0.0000 C   0  0  0  0  0  0  0  0  0  0  0  0
    5.9867   -2.3082    0.0000 N   0  0  0  0  0  0  0  0  0  0  0  0
    3.9911   -3.4590    0.0000 C   0  0  0  0  0  0  0  0  0  0  0  0
    1.9956   -2.3082    0.0000 C   0  0  0  0  0  0  0  0  0  0  0  0
    6.6519   -3.4590    0.0000 O   0  0  0  0  0  0  0  0  0  0  0  0
    6.6519   -1.1574    0.0000 O   0  0  0  0  0  0  0  0  0  0  0  0
    2.6607   -3.4590    0.0000 C   0  0  0  0  0  0  0  0  0  0  0  0
    0.6652   -2.3082    0.0000 N   0  0  0  0  0  0  0  0  0  0  0  0
    0.0000   -1.1574    0.0000 O   0  0  0  0  0  0  0  0  0  0  0  0
    0.0000   -3.4590    0.0000 O   0  0  0  0  0  0  0  0  0  0  0  0
  1  2  1  0  0  0  0 
  2  3  2  0  0  0  0 
  2  4  1  0  0  0  0 
  3  5  1  0  0  0  0 
  3  6  1  0  0  0  0 
  7  4  2  0  0  0  0 
  5  8  2  0  0  0  0 
  5  9  1  0  0  0  0 
  6 10  2  0  0  0  0 
 10  7  1  0  0  0  0 
  7 11  1  0  0  0  0 
 11 12  1  0  0  0  0 
 11 13  2  0  0  0  0 
M  CHG  1   5   1
M  CHG  1   9  -1
M  CHG  1  11   1
M  CHG  1  12  -1
M  END
> <Name>
Phenol, 2,5-dinitro-

> <Source>
DSSTox2DMolFile

> <Tox>
4.040

> <CAS>
329-71-5

$$$$

  CDK

 12 11  0  0  0  0  0  0  0  0999 V2000
    0.0000   -1.9913    0.0000 C   0  0  0  0  0  0  0  0  0  0  0  0
    1.1510   -1.3237    0.0000 C   0  0  0  0  0  0  0  0  0  0  0  0
    2.3021   -1.9913    0.0000 C   0  0  0  0  0  0  0  0  0  0  0  0
    3.4531   -1.3237    0.0000 C   0  0  0  0  0  0  0  0  0  0  0  0
    4.6041   -1.9913    0.0000 C   0  0  0  0  0  0  0  0  0  0  0  0
    5.7552   -1.3237    0.0000 C   0  0  0  0  0  0  0  0  0  0  0  0
    6.9062   -1.9913    0.0000 C   0  0  0  0  0  0  0  0  0  0  0  0
    8.0573   -1.3237    0.0000 C   0  0  0  0  0  0  0  0  0  0  0  0
    9.2083   -1.9913    0.0000 C   0  0  0  0  0  0  0  0  0  0  0  0
   10.3593   -1.3237    0.0000 C   0  0  0  0  0  0  0  0  0  0  0  0
   11.5104   -1.9913    0.0000 O   0  0  0  0  0  0  0  0  0  0  0  0
   10.3593   -0.0000    0.0000 O   0  0  0  0  0  0  0  0  0  0  0  0
  1  2  1  0  0  0  0 
  2  3  1  0  0  0  0 
  3  4  1  0  0  0  0 
  4  5  1  0  0  0  0 
  5  6  1  0  0  0  0 
  6  7  1  0  0  0  0 
  7  8  1  0  0  0  0 
  8  9  1  0  0  0  0 
  9 10  1  0  0  0  0 
 10 11  1  0  0  0  0 
 10 12  2  0  0  0  0 
M  END
> <Name>
Decanoic acid

> <Source>
DSSTox2DMolFile

> <Tox>
3.506

> <CAS>
334-48-5

$$$$

  CDK

 11 11  0  0  0  0  0  0  0  0999 V2000
    2.9526    0.8508    0.0000 C   0  0  0  0  0  0  0  0  0  0  0  0
    1.9517    0.8508    0.0000 C   0  0  0  0  0  0  0  0  0  0  0  0
    3.4030    1.7015    0.0000 C   0  0  0  0  0  0  0  0  0  0  0  0
    3.4531    0.0000    0.0000 Cl  0  0  0  0  0  0  0  0  0  0  0  0
    1.5013    1.7015    0.0000 C   0  0  0  0  0  0  0  0  0  0  0  0
    2.9526    2.6023    0.0000 C   0  0  0  0  0  0  0  0  0  0  0  0
    4.4540    1.7015    0.0000 F   0  0  0  0  0  0  0  0  0  0  0  0
    1.9517    2.6023    0.0000 C   0  0  0  0  0  0  0  0  0  0  0  0
    0.4504    1.7015    0.0000 N   0  0  0  0  0  0  0  0  0  0  0  0
    0.0000    0.8508    0.0000 O   0  0  0  0  0  0  0  0  0  0  0  0
    0.0000    2.6023    0.0000 O   0  0  0  0  0  0  0  0  0  0  0  0
  2  1  2  0  0  0  0 
  1  3  1  0  0  0  0 
  1  4  1  0  0  0  0 
  5  2  1  0  0  0  0 
  3  6  2  0  0  0  0 
  3  7  1  0  0  0  0 
  8  5  2  0  0  0  0 
  5  9  1  0  0  0  0 
  6  8  1  0  0  0  0 
  9 10  2  0  0  0  0 
  9 11  2  0  0  0  0 
M  END
> <Name>
Benzene, 2-chloro-1-fluoro-4-nitro-

> <Source>
NIST2DMolFile

> <Tox>
3.800

> <CAS>
350-30-1

$$$$

  CDK

 10 10  0  0  0  0  0  0  0  0999 V2000
    5.9822   -1.1546    0.0000 F   0  0  0  0  0  0  0  0  0  0  0  0
    4.6542   -1.1546    0.0000 C   0  0  0  0  0  0  0  0  0  0  0  0
    3.9901   -2.3031    0.0000 C   0  0  0  0  0  0  0  0  0  0  0  0
    3.9901   -0.0000    0.0000 C   0  0  0  0  0  0  0  0  0  0  0  0
    2.6561   -2.3031    0.0000 C   0  0  0  0  0  0  0  0  0  0  0  0
    2.6561   -0.0000    0.0000 C   0  0  0  0  0  0  0  0  0  0  0  0
    1.9921   -1.1546    0.0000 C   0  0  0  0  0  0  0  0  0  0  0  0
    0.6640   -1.1546    0.0000 N   0  0  0  0  0  0  0  0  0  0  0  0
    0.0000   -2.3031    0.0000 O   0  0  0  0  0  0  0  0  0  0  0  0
    0.0000   -0.0000    0.0000 O   0  0  0  0  0  0  0  0  0  0  0  0
  1  2  1  0  0  0  0 
  2  3  2  0  0  0  0 
  2  4  1  0  0  0  0 
  3  5  1  0  0  0  0 
  6  4  2  0  0  0  0 
  5  7  2  0  0  0  0 
  7  6  1  0  0  0  0 
  7  8  1  0  0  0  0 
  8  9  2  0  0  0  0 
  8 10  1  0  0  0  0 
M  CHG  1   8   1
M  CHG  1  10  -1
M  END
> <Name>
Benzene, 1-fluoro-4-nitro-

> <Source>
DSSTox2DMolFile

> <Tox>
3.100

> <CAS>
350-46-9

$$$$

  CDK

  5  4  0  0  0  0  0  0  0  0999 V2000
    3.4783   -0.7085    0.0000 C   0  0  0  0  0  0  0  0  0  0  0  0
    4.6009   -0.0000    0.0000 C   0  0  0  0  0  0  0  0  0  0  0  0
    2.2912   -0.0828    0.0000 S   0  0  0  0  0  0  0  0  0  0  0  0
    1.1686   -0.7867    0.0000 C   0  0  0  0  0  0  0  0  0  0  0  0
    0.0000   -0.1610    0.0000 C   0  0  0  0  0  0  0  0  0  0  0  0
  1  2  1  0  0  0  0 
  1  3  1  0  0  0  0 
  4  3  1  0  0  0  0 
  4  5  1  0  0  0  0 
M  END
> <Name>
Ethane, 1,1'-thiobis-

> <Source>
DSSTox2DMolFile

> <Tox>
2.020

> <CAS>
352-93-2

$$$$

  CDK

 11 11  0  0  0  0  0  0  0  0999 V2000
    3.0121    0.8679    0.0000 C   0  0  0  0  0  0  0  0  0  0  0  0
    1.9910    0.8679    0.0000 C   0  0  0  0  0  0  0  0  0  0  0  0
    3.5226    1.7358    0.0000 C   0  0  0  0  0  0  0  0  0  0  0  0
    1.5316    1.7358    0.0000 C   0  0  0  0  0  0  0  0  0  0  0  0
    1.4805    0.0000    0.0000 F   0  0  0  0  0  0  0  0  0  0  0  0
    3.0121    2.6037    0.0000 C   0  0  0  0  0  0  0  0  0  0  0  0
    1.9910    2.6037    0.0000 C   0  0  0  0  0  0  0  0  0  0  0  0
    0.5105    1.7358    0.0000 N   0  0  0  0  0  0  0  0  0  0  0  0
    3.4715    3.4715    0.0000 F   0  0  0  0  0  0  0  0  0  0  0  0
    0.0000    0.8679    0.0000 O   0  0  0  0  0  0  0  0  0  0  0  0
    0.0000    2.5526    0.0000 O   0  0  0  0  0  0  0  0  0  0  0  0
  2  1  2  0  0  0  0 
  1  3  1  0  0  0  0 
  4  2  1  0  0  0  0 
  2  5  1  0  0  0  0 
  3  6  2  0  0  0  0 
  7  4  2  0  0  0  0 
  4  8  1  0  0  0  0 
  6  7  1  0  0  0  0 
  6  9  1  0  0  0  0 
  8 10  2  0  0  0  0 
  8 11  2  0  0  0  0 
M  END
> <Name>
Benzene, 1,4-difluoro-2-nitro-

> <Source>
NIST2DMolFile

> <Tox>
3.330

> <CAS>
364-74-9

$$$$

  CDK

  9  9  0  0  0  0  0  0  0  0999 V2000
   -1.6522    1.7820   -0.0001 F   0  0  0  0  0  0  0  0  0  0  0  0
   -0.7426    0.7979    0.0001 C   0  0  0  0  0  0  0  0  0  0  0  0
   -1.1498   -0.5363   -0.0001 C   0  0  0  0  0  0  0  0  0  0  0  0
    0.6165    1.1122    0.0001 C   0  0  0  0  0  0  0  0  0  0  0  0
   -2.4756   -0.8444    0.0001 O   0  0  0  0  0  0  0  0  0  0  0  0
   -0.1982   -1.5561    0.0000 C   0  0  0  0  0  0  0  0  0  0  0  0
    1.5681    0.0923    0.0000 C   0  0  0  0  0  0  0  0  0  0  0  0
    1.1607   -1.2418    0.0000 C   0  0  0  0  0  0  0  0  0  0  0  0
    2.8731    0.3941    0.0000 F   0  0  0  0  0  0  0  0  0  0  0  0
  1  2  1  0  0  0  0 
  3  2  2  0  0  0  0 
  2  4  1  0  0  0  0 
  5  3  1  0  0  0  0 
  3  6  1  0  0  0  0 
  4  7  2  0  0  0  0 
  6  8  2  0  0  0  0 
  9  7  1  0  0  0  0 
  8  7  1  0  0  0  0 
M  END
> <Name>
2,4-difluorophenol

> <Source>
Chemidplus3DMolFile

> <Tox>
3.600

> <CAS>
367-27-1

$$$$

  CDK

 14 14  0  0  0  0  0  0  0  0999 V2000
    1.5058    3.4633    0.0000 C   0  0  0  0  0  0  0  0  0  0  0  0
    1.0038    2.6100    0.0000 C   0  0  0  0  0  0  0  0  0  0  0  0
    2.5096    3.4633    0.0000 C   0  0  0  0  0  0  0  0  0  0  0  0
    1.5058    1.7065    0.0000 C   0  0  0  0  0  0  0  0  0  0  0  0
    0.0000    2.6100    0.0000 N   0  0  0  0  0  0  0  0  0  0  0  0
    2.9613    4.3165    0.0000 F   0  0  0  0  0  0  0  0  0  0  0  0
    3.0115    2.6100    0.0000 C   0  0  0  0  0  0  0  0  0  0  0  0
    2.5096    1.7065    0.0000 C   0  0  0  0  0  0  0  0  0  0  0  0
    0.9536    0.8533    0.0000 N   0  0  0  0  0  0  0  0  0  0  0  0
    4.0154    2.6100    0.0000 N   0  0  0  0  0  0  0  0  0  0  0  0
    1.4556    0.0000    0.0000 O   0  0  0  0  0  0  0  0  0  0  0  0
    0.0000    0.6023    0.0000 O   0  0  0  0  0  0  0  0  0  0  0  0
    4.5173    3.4633    0.0000 O   0  0  0  0  0  0  0  0  0  0  0  0
    4.5173    1.7567    0.0000 O   0  0  0  0  0  0  0  0  0  0  0  0
  1  2  2  0  0  0  0 
  3  1  1  0  0  0  0 
  2  4  1  0  0  0  0 
  2  5  1  0  0  0  0 
  3  6  1  0  0  0  0 
  7  3  2  0  0  0  0 
  4  8  2  0  0  0  0 
  4  9  1  0  0  0  0 
  7 10  1  0  0  0  0 
  8  7  1  0  0  0  0 
  9 11  2  0  0  0  0 
  9 12  2  0  0  0  0 
 10 13  2  0  0  0  0 
 10 14  2  0  0  0  0 
M  END
> <Name>
Benzenamine, 5-fluoro-2,4-dinitro-

> <Source>
NIST2DMolFile

> <Tox>
4.690

> <CAS>
367-81-7

$$$$

  CDK

  8  8  0  0  0  0  0  0  0  0999 V2000
    0.0000   -1.1545    0.0000 N   0  0  0  0  0  0  0  0  0  0  0  0
    1.3300   -1.1545    0.0000 C   0  0  0  0  0  0  0  0  0  0  0  0
    1.9950   -0.0000    0.0000 C   0  0  0  0  0  0  0  0  0  0  0  0
    1.9950   -2.3036    0.0000 C   0  0  0  0  0  0  0  0  0  0  0  0
    3.3250   -0.0000    0.0000 C   0  0  0  0  0  0  0  0  0  0  0  0
    3.3250   -2.3036    0.0000 C   0  0  0  0  0  0  0  0  0  0  0  0
    3.9900   -1.1545    0.0000 C   0  0  0  0  0  0  0  0  0  0  0  0
    5.3201   -1.1545    0.0000 F   0  0  0  0  0  0  0  0  0  0  0  0
  1  2  1  0  0  0  0 
  2  3  2  0  0  0  0 
  2  4  1  0  0  0  0 
  3  5  1  0  0  0  0 
  6  4  2  0  0  0  0 
  5  7  2  0  0  0  0 
  7  6  1  0  0  0  0 
  7  8  1  0  0  0  0 
M  END
> <Name>
Aniline, p-fluoro- (8CI)

> <Source>
DSSTox2DMolFile

> <Tox>
3.590

> <CAS>
371-40-4

$$$$

  CDK

  8  8  0  0  0  0  0  0  0  0999 V2000
    0.9160    0.5089    0.0000 C   0  0  0  0  0  0  0  0  0  0  0  0
    0.9160    1.4758    0.0000 C   0  0  0  0  0  0  0  0  0  0  0  0
    1.7811    0.0000    0.0000 C   0  0  0  0  0  0  0  0  0  0  0  0
    0.0000    0.0000    0.0000 F   0  0  0  0  0  0  0  0  0  0  0  0
    1.7811    1.9846    0.0000 C   0  0  0  0  0  0  0  0  0  0  0  0
    2.6462    0.5089    0.0000 C   0  0  0  0  0  0  0  0  0  0  0  0
    2.6462    1.4758    0.0000 C   0  0  0  0  0  0  0  0  0  0  0  0
    3.5113    1.9846    0.0000 O   0  0  0  0  0  0  0  0  0  0  0  0
  1  2  2  0  0  0  0 
  3  1  1  0  0  0  0 
  1  4  1  0  0  0  0 
  2  5  1  0  0  0  0 
  6  3  2  0  0  0  0 
  5  7  2  0  0  0  0 
  7  6  1  0  0  0  0 
  7  8  1  0  0  0  0 
M  END
> <Name>
Phenol, 4-fluoro-

> <Source>
NIST2DMolFile

> <Tox>
3.020

> <CAS>
371-41-5

$$$$

  CDK

  7  7  0  0  0  0  0  0  0  0999 V2000
    0.9218    1.9972    0.0000 N   0  0  0  0  0  0  0  0  0  0  0  0
    0.0000    1.4851    0.0000 C   0  0  0  0  0  0  0  0  0  0  0  0
    1.7412    1.4339    0.0000 C   0  0  0  0  0  0  0  0  0  0  0  0
    0.0000    0.5121    0.0000 C   0  0  0  0  0  0  0  0  0  0  0  0
    1.7412    0.4609    0.0000 C   0  0  0  0  0  0  0  0  0  0  0  0
    2.6118    1.9460    0.0000 F   0  0  0  0  0  0  0  0  0  0  0  0
    0.8706    0.0000    0.0000 C   0  0  0  0  0  0  0  0  0  0  0  0
  2  1  2  0  0  0  0 
  1  3  1  0  0  0  0 
  4  2  1  0  0  0  0 
  3  5  2  0  0  0  0 
  3  6  1  0  0  0  0 
  7  4  2  0  0  0  0 
  5  7  1  0  0  0  0 
M  END
> <Name>
Pyridine, 2-fluoro-

> <Source>
NIST2DMolFile

> <Tox>
1.800

> <CAS>
372-48-5

$$$$

  CDK

 10 10  0  0  0  0  0  0  0  0999 V2000
    1.2205   -2.7200    0.0018 Cl  0  0  0  0  0  0  0  0  0  0  0  0
    0.3885   -1.2081   -0.0006 C   0  0  0  0  0  0  0  0  0  0  0  0
    1.0864   -0.0004   -0.0007 C   0  0  0  0  0  0  0  0  0  0  0  0
   -1.0064   -1.2076   -0.0001 C   0  0  0  0  0  0  0  0  0  0  0  0
    2.4517   -0.0007   -0.0014 O   0  0  0  0  0  0  0  0  0  0  0  0
    0.3893    1.2079   -0.0006 C   0  0  0  0  0  0  0  0  0  0  0  0
   -1.7035    0.0005    0.0001 C   0  0  0  0  0  0  0  0  0  0  0  0
    1.2223    2.7194    0.0018 Cl  0  0  0  0  0  0  0  0  0  0  0  0
   -1.0057    1.2082   -0.0002 C   0  0  0  0  0  0  0  0  0  0  0  0
   -3.0430    0.0008    0.0000 F   0  0  0  0  0  0  0  0  0  0  0  0
  1  2  1  0  0  0  0 
  3  2  2  0  0  0  0 
  2  4  1  0  0  0  0 
  5  3  1  0  0  0  0 
  3  6  1  0  0  0  0 
  4  7  2  0  0  0  0 
  8  6  1  0  0  0  0 
  6  9  2  0  0  0  0 
 10  7  1  0  0  0  0 
  9  7  1  0  0  0  0 
M  END
> <Name>
2,6-dichloro-4-fluorophenol

> <Source>
Chemidplus3DMolFile

> <Tox>
3.800

> <CAS>
392-71-2

$$$$

  CDK

 12 12  0  0  0  0  0  0  0  0999 V2000
    4.6085   -0.0000    0.0000 N   0  0  0  0  0  0  0  0  0  0  0  0
    3.4563   -0.6682    0.0000 C   0  0  0  0  0  0  0  0  0  0  0  0
    3.4563   -1.9989    0.0000 C   0  0  0  0  0  0  0  0  0  0  0  0
    2.3042   -0.0000    0.0000 C   0  0  0  0  0  0  0  0  0  0  0  0
    4.6085   -2.6614    0.0000 C   0  0  0  0  0  0  0  0  0  0  0  0
    2.3042   -2.6614    0.0000 C   0  0  0  0  0  0  0  0  0  0  0  0
    1.1521   -0.6682    0.0000 C   0  0  0  0  0  0  0  0  0  0  0  0
    5.7606   -3.3239    0.0000 F   0  0  0  0  0  0  0  0  0  0  0  0
    3.9460   -3.8135    0.0000 F   0  0  0  0  0  0  0  0  0  0  0  0
    5.2709   -1.5093    0.0000 F   0  0  0  0  0  0  0  0  0  0  0  0
    1.1521   -1.9989    0.0000 C   0  0  0  0  0  0  0  0  0  0  0  0
    0.0000   -2.6614    0.0000 F   0  0  0  0  0  0  0  0  0  0  0  0
  1  2  1  0  0  0  0 
  2  3  2  0  0  0  0 
  2  4  1  0  0  0  0 
  3  5  1  0  0  0  0 
  3  6  1  0  0  0  0 
  7  4  2  0  0  0  0 
  5  8  1  0  0  0  0 
  5  9  1  0  0  0  0 
  5 10  1  0  0  0  0 
  6 11  2  0  0  0  0 
 11  7  1  0  0  0  0 
 11 12  1  0  0  0  0 
M  END
> <Name>
alpha,alpha,alpha,4-Tetrafluoro-o-toluidine

> <Source>
DSSTox2DMolFile

> <Tox>
2.980

> <CAS>
393-39-5

$$$$

  CDK

 11 11  0  0  0  0  0  0  0  0999 V2000
   -2.9739    1.3357   -0.0009 F   0  0  0  0  0  0  0  0  0  0  0  0
   -1.9142    0.5164    0.0004 C   0  0  0  0  0  0  0  0  0  0  0  0
   -0.6237    1.0458    0.0000 C   0  0  0  0  0  0  0  0  0  0  0  0
   -2.1009   -0.8659    0.0007 C   0  0  0  0  0  0  0  0  0  0  0  0
    0.4801    0.1929   -0.0003 C   0  0  0  0  0  0  0  0  0  0  0  0
   -0.9971   -1.7188    0.0003 C   0  0  0  0  0  0  0  0  0  0  0  0
    1.7883    0.7504   -0.0001 N   0  0  0  0  0  0  0  0  0  0  0  0
    0.2934   -1.1894   -0.0002 C   0  0  0  0  0  0  0  0  0  0  0  0
    1.9154    1.9977    0.0005 O   0  0  0  0  0  0  0  0  0  0  0  0
    2.7760   -0.0218    0.0000 O   0  0  0  0  0  0  0  0  0  0  0  0
    1.3566   -2.0430   -0.0005 O   0  0  0  0  0  0  0  0  0  0  0  0
  1  2  1  0  0  0  0 
  3  2  2  0  0  0  0 
  2  4  1  0  0  0  0 
  5  3  1  0  0  0  0 
  6  4  2  0  0  0  0 
  7  5  1  0  0  0  0 
  5  8  2  0  0  0  0 
  8  6  1  0  0  0  0 
  9  7  1  0  0  0  0 
 10  7  2  0  0  0  0 
 11  8  1  0  0  0  0 
M  CHG  1   7   1
M  CHG  1   9  -1
M  END
> <Name>
4-fluoro-2-nitrophenol

> <Source>
Chemidplus3DMolFile

> <Tox>
4.380

> <CAS>
394-33-2

$$$$

  CDK

 11 11  0  0  0  0  0  0  0  0999 V2000
    1.5683    1.8213    0.0000 C   0  0  0  0  0  0  0  0  0  0  0  0
    2.5296    1.8213    0.0000 C   0  0  0  0  0  0  0  0  0  0  0  0
    1.0624    0.9612    0.0000 C   0  0  0  0  0  0  0  0  0  0  0  0
    2.9849    0.9612    0.0000 C   0  0  0  0  0  0  0  0  0  0  0  0
    1.5177    0.1012    0.0000 C   0  0  0  0  0  0  0  0  0  0  0  0
    0.0000    0.9612    0.0000 O   0  0  0  0  0  0  0  0  0  0  0  0
    2.5296    0.1012    0.0000 C   0  0  0  0  0  0  0  0  0  0  0  0
    3.9967    0.9612    0.0000 C   0  0  0  0  0  0  0  0  0  0  0  0
    3.9967    0.0000    0.0000 F   0  0  0  0  0  0  0  0  0  0  0  0
    5.0591    0.9612    0.0000 F   0  0  0  0  0  0  0  0  0  0  0  0
    3.9967    1.9731    0.0000 F   0  0  0  0  0  0  0  0  0  0  0  0
  2  1  2  0  0  0  0 
  1  3  1  0  0  0  0 
  4  2  1  0  0  0  0 
  3  5  2  0  0  0  0 
  3  6  1  0  0  0  0 
  7  4  2  0  0  0  0 
  4  8  1  0  0  0  0 
  5  7  1  0  0  0  0 
  8  9  1  0  0  0  0 
  8 10  1  0  0  0  0 
  8 11  1  0  0  0  0 
M  END
> <Name>
alpha,alpha,alpha-Trifluoro-p-cresol

> <Source>
NIST2DMolFile

> <Tox>
3.620

> <CAS>
402-45-9

$$$$

  CDK

 10 10  0  0  0  0  0  0  0  0999 V2000
    1.7017    1.5015    0.0000 C   0  0  0  0  0  0  0  0  0  0  0  0
    2.5526    2.0020    0.0000 C   0  0  0  0  0  0  0  0  0  0  0  0
    1.7017    0.5005    0.0000 C   0  0  0  0  0  0  0  0  0  0  0  0
    0.8509    2.0020    0.0000 N   0  0  0  0  0  0  0  0  0  0  0  0
    3.4535    1.5015    0.0000 C   0  0  0  0  0  0  0  0  0  0  0  0
    2.5526    0.0000    0.0000 C   0  0  0  0  0  0  0  0  0  0  0  0
    0.8509    3.0030    0.0000 O   0  0  0  0  0  0  0  0  0  0  0  0
    0.0000    1.5015    0.0000 O   0  0  0  0  0  0  0  0  0  0  0  0
    3.4535    0.5005    0.0000 C   0  0  0  0  0  0  0  0  0  0  0  0
    4.3043    2.0020    0.0000 F   0  0  0  0  0  0  0  0  0  0  0  0
  1  2  2  0  0  0  0 
  3  1  1  0  0  0  0 
  1  4  1  0  0  0  0 
  2  5  1  0  0  0  0 
  6  3  2  0  0  0  0 
  4  7  2  0  0  0  0 
  4  8  2  0  0  0  0 
  5  9  2  0  0  0  0 
  5 10  1  0  0  0  0 
  9  6  1  0  0  0  0 
M  END
> <Name>
Benzene, 1-fluoro-3-nitro- (8CI)(9CI)

> <Source>
NIST2DMolFile

> <Tox>
3.200

> <CAS>
402-67-5

$$$$

  CDK

 11 11  0  0  0  0  0  0  0  0999 V2000
   -2.1506    1.8723   -0.0001 F   0  0  0  0  0  0  0  0  0  0  0  0
   -1.3290    0.8136    0.0004 C   0  0  0  0  0  0  0  0  0  0  0  0
    0.0520    1.0098   -0.0002 C   0  0  0  0  0  0  0  0  0  0  0  0
   -1.8496   -0.4804    0.0005 C   0  0  0  0  0  0  0  0  0  0  0  0
    0.9124   -0.0881   -0.0007 C   0  0  0  0  0  0  0  0  0  0  0  0
   -3.1966   -0.6732    0.0000 O   0  0  0  0  0  0  0  0  0  0  0  0
   -0.9892   -1.5783   -0.0001 C   0  0  0  0  0  0  0  0  0  0  0  0
    2.3181    0.1118    0.0002 N   0  0  0  0  0  0  0  0  0  0  0  0
    0.3919   -1.3822   -0.0007 C   0  0  0  0  0  0  0  0  0  0  0  0
    3.0747   -0.8894    0.0008 O   0  0  0  0  0  0  0  0  0  0  0  0
    2.7658    1.2840   -0.0002 O   0  0  0  0  0  0  0  0  0  0  0  0
  1  2  1  0  0  0  0 
  3  2  1  0  0  0  0 
  4  2  2  0  0  0  0 
  5  3  2  0  0  0  0 
  6  4  1  0  0  0  0 
  4  7  1  0  0  0  0 
  8  5  1  0  0  0  0 
  5  9  1  0  0  0  0 
  9  7  2  0  0  0  0 
 10  8  1  0  0  0  0 
 11  8  2  0  0  0  0 
M  CHG  1   8   1
M  CHG  1  10  -1
M  END
> <Name>
2-fluoro-4-nitrophenol

> <Source>
Chemidplus3DMolFile

> <Tox>
4.070

> <CAS>
403-19-0

$$$$

  CDK

  6  5  0  0  0  0  0  0  0  0999 V2000
    1.3307   -0.0000    0.0000 C   0  0  0  0  0  0  0  0  0  0  0  0
    1.9943   -1.1509    0.0000 C   0  0  0  0  0  0  0  0  0  0  0  0
    1.3307   -2.3053    0.0000 C   0  0  0  0  0  0  0  0  0  0  0  0
    3.3250   -1.1509    0.0000 O   0  0  0  0  0  0  0  0  0  0  0  0
    1.9943   -3.4563    0.0000 C   0  0  0  0  0  0  0  0  0  0  0  0
    0.0000   -2.3053    0.0000 O   0  0  0  0  0  0  0  0  0  0  0  0
  1  2  1  0  0  0  0 
  2  3  1  0  0  0  0 
  2  4  2  0  0  0  0 
  3  5  1  0  0  0  0 
  3  6  2  0  0  0  0 
M  END
> <Name>
2,3-Butanedione

> <Source>
DSSTox2DMolFile

> <Tox>
2.770

> <CAS>
431-03-8

$$$$

  CDK

 12 12  0  0  0  0  0  0  0  0999 V2000
    4.5926    1.9968    0.0000 F   0  0  0  0  0  0  0  0  0  0  0  0
    3.7439    1.4976    0.0000 C   0  0  0  0  0  0  0  0  0  0  0  0
    3.7439    2.4960    0.0000 F   0  0  0  0  0  0  0  0  0  0  0  0
    4.5926    0.9984    0.0000 F   0  0  0  0  0  0  0  0  0  0  0  0
    2.8953    0.9984    0.0000 C   0  0  0  0  0  0  0  0  0  0  0  0
    2.8953    0.0000    0.0000 O   0  0  0  0  0  0  0  0  0  0  0  0
    1.9968    1.4976    0.0000 C   0  0  0  0  0  0  0  0  0  0  0  0
    1.4976    2.3961    0.0000 C   0  0  0  0  0  0  0  0  0  0  0  0
    1.4976    0.6489    0.0000 C   0  0  0  0  0  0  0  0  0  0  0  0
    0.4992    2.3961    0.0000 C   0  0  0  0  0  0  0  0  0  0  0  0
    0.4992    0.6489    0.0000 C   0  0  0  0  0  0  0  0  0  0  0  0
    0.0000    1.4976    0.0000 C   0  0  0  0  0  0  0  0  0  0  0  0
  1  2  1  0  0  0  0 
  2  3  1  0  0  0  0 
  2  4  1  0  0  0  0 
  2  5  1  0  0  0  0 
  6  5  2  0  0  0  0 
  5  7  1  0  0  0  0 
  8  7  2  0  0  0  0 
  7  9  1  0  0  0  0 
 10  8  1  0  0  0  0 
  9 11  2  0  0  0  0 
 12 10  2  0  0  0  0 
 11 12  1  0  0  0  0 
M  END
> <Name>
2,2,2-trifluoro-1-phenylethanone

> <Source>
NIST2DMolFile

> <Tox>
2.990

> <CAS>
434-45-7

$$$$

  CDK

 13 13  0  0  0  0  0  0  0  0999 V2000
    0.0000    0.8479    0.0000 O   0  0  0  0  0  0  0  0  0  0  0  0
    0.4489    1.7457    0.0000 C   0  0  0  0  0  0  0  0  0  0  0  0
    1.4963    1.7457    0.0000 C   0  0  0  0  0  0  0  0  0  0  0  0
    1.9950    0.8479    0.0000 C   0  0  0  0  0  0  0  0  0  0  0  0
    1.9950    2.5936    0.0000 C   0  0  0  0  0  0  0  0  0  0  0  0
    1.4963    0.0000    0.0000 F   0  0  0  0  0  0  0  0  0  0  0  0
    2.9926    0.8479    0.0000 C   0  0  0  0  0  0  0  0  0  0  0  0
    2.9926    2.5936    0.0000 C   0  0  0  0  0  0  0  0  0  0  0  0
    1.4963    3.4415    0.0000 F   0  0  0  0  0  0  0  0  0  0  0  0
    3.4913    0.0000    0.0000 F   0  0  0  0  0  0  0  0  0  0  0  0
    3.4913    1.7457    0.0000 C   0  0  0  0  0  0  0  0  0  0  0  0
    3.4913    3.4415    0.0000 F   0  0  0  0  0  0  0  0  0  0  0  0
    4.4889    1.7457    0.0000 F   0  0  0  0  0  0  0  0  0  0  0  0
  1  2  1  0  0  0  0 
  2  3  1  0  0  0  0 
  3  4  2  0  0  0  0 
  5  3  1  0  0  0  0 
  6  4  1  0  0  0  0 
  4  7  1  0  0  0  0 
  8  5  2  0  0  0  0 
  9  5  1  0  0  0  0 
 10  7  1  0  0  0  0 
  7 11  2  0  0  0  0 
 11  8  1  0  0  0  0 
 12  8  1  0  0  0  0 
 13 11  1  0  0  0  0 
M  END
> <Name>
Benzenemethanol, 2,3,4,5,6-pentafluoro- (9CI)

> <Source>
NIST2DMolFile

> <Tox>
2.800

> <CAS>
440-60-8

$$$$

  CDK

 11 11  0  0  0  0  0  0  0  0999 V2000
    2.5856    0.5070    0.0000 C   0  0  0  0  0  0  0  0  0  0  0  0
    2.5856    1.5209    0.0000 C   0  0  0  0  0  0  0  0  0  0  0  0
    1.7744    0.0507    0.0000 C   0  0  0  0  0  0  0  0  0  0  0  0
    1.7744    2.0279    0.0000 C   0  0  0  0  0  0  0  0  0  0  0  0
    3.4475    2.0279    0.0000 N   0  0  0  0  0  0  0  0  0  0  0  0
    0.8619    0.5577    0.0000 C   0  0  0  0  0  0  0  0  0  0  0  0
    0.8619    1.5209    0.0000 C   0  0  0  0  0  0  0  0  0  0  0  0
    1.7744    2.9912    0.0000 O   0  0  0  0  0  0  0  0  0  0  0  0
    4.3600    1.5209    0.0000 O   0  0  0  0  0  0  0  0  0  0  0  0
    3.4475    3.0419    0.0000 O   0  0  0  0  0  0  0  0  0  0  0  0
    0.0000    0.0000    0.0000 F   0  0  0  0  0  0  0  0  0  0  0  0
  2  1  2  0  0  0  0 
  1  3  1  0  0  0  0 
  4  2  1  0  0  0  0 
  2  5  1  0  0  0  0 
  3  6  2  0  0  0  0 
  7  4  2  0  0  0  0 
  4  8  1  0  0  0  0 
  5  9  2  0  0  0  0 
  5 10  2  0  0  0  0 
  6  7  1  0  0  0  0 
  6 11  1  0  0  0  0 
M  END
> <Name>
5-Fluoro-2-nitrophenol

> <Source>
NIST2DMolFile

> <Tox>
4.120

> <CAS>
446-36-6

$$$$

  CDK

  9  9  0  0  0  0  0  0  0  0999 V2000
    0.7002   -2.0589   -0.1154 F   0  0  0  0  0  0  0  0  0  0  0  0
   -0.0703   -0.9632   -0.0676 C   0  0  0  0  0  0  0  0  0  0  0  0
    0.4876    0.3014   -0.2551 C   0  0  0  0  0  0  0  0  0  0  0  0
   -1.4385   -1.0935    0.1700 C   0  0  0  0  0  0  0  0  0  0  0  0
    1.9504    0.4444   -0.5094 C   0  0  0  0  0  0  0  0  0  0  0  0
   -0.3227    1.4357   -0.2050 C   0  0  0  0  0  0  0  0  0  0  0  0
   -2.2490    0.0407    0.2200 C   0  0  0  0  0  0  0  0  0  0  0  0
    2.6333    0.5883    0.7299 O   0  0  0  0  0  0  0  0  0  0  0  0
   -1.6910    1.3052    0.0326 C   0  0  0  0  0  0  0  0  0  0  0  0
  1  2  1  0  0  0  0 
  3  2  1  0  0  0  0 
  2  4  2  0  0  0  0 
  3  5  1  0  0  0  0 
  3  6  2  0  0  0  0 
  4  7  1  0  0  0  0 
  8  5  1  0  0  0  0 
  6  9  1  0  0  0  0 
  9  7  2  0  0  0  0 
M  END
> <Name>
(2-fluorophenyl)methanol

> <Source>
Chemidplus3DMolFile

> <Tox>
2.330

> <CAS>
446-51-5

$$$$

  CDK

  9  9  0  0  0  0  0  0  0  0999 V2000
    1.9976   -2.3049    0.0000 C   0  0  0  0  0  0  0  0  0  0  0  0
    0.6659   -2.3049    0.0000 C   0  0  0  0  0  0  0  0  0  0  0  0
    2.6588   -1.1501    0.0000 C   0  0  0  0  0  0  0  0  0  0  0  0
    2.6588   -3.4550    0.0000 C   0  0  0  0  0  0  0  0  0  0  0  0
    0.0000   -3.4550    0.0000 O   0  0  0  0  0  0  0  0  0  0  0  0
    1.9976   -0.0000    0.0000 F   0  0  0  0  0  0  0  0  0  0  0  0
    3.9905   -1.1501    0.0000 C   0  0  0  0  0  0  0  0  0  0  0  0
    3.9905   -3.4550    0.0000 C   0  0  0  0  0  0  0  0  0  0  0  0
    4.6563   -2.3049    0.0000 C   0  0  0  0  0  0  0  0  0  0  0  0
  1  2  1  0  0  0  0 
  1  3  2  0  0  0  0 
  1  4  1  0  0  0  0 
  2  5  2  0  0  0  0 
  3  6  1  0  0  0  0 
  3  7  1  0  0  0  0 
  8  4  2  0  0  0  0 
  7  9  2  0  0  0  0 
  9  8  1  0  0  0  0 
M  END
> <Name>
Benzaldehyde, o-fluoro- (8CI)

> <Source>
DSSTox2DMolFile

> <Tox>
3.079

> <CAS>
446-52-6

$$$$

  CDK

 12 12  0  0  0  0  0  0  0  0999 V2000
    6.0691    1.5047    0.0000 C   0  0  0  0  0  0  0  0  0  0  0  0
    5.1663    2.0063    0.0000 C   0  0  0  0  0  0  0  0  0  0  0  0
    4.3136    1.5047    0.0000 O   0  0  0  0  0  0  0  0  0  0  0  0
    3.4609    2.0063    0.0000 C   0  0  0  0  0  0  0  0  0  0  0  0
    3.4609    3.0095    0.0000 O   0  0  0  0  0  0  0  0  0  0  0  0
    2.5581    1.5047    0.0000 C   0  0  0  0  0  0  0  0  0  0  0  0
    1.7054    2.0063    0.0000 C   0  0  0  0  0  0  0  0  0  0  0  0
    2.5581    0.5016    0.0000 C   0  0  0  0  0  0  0  0  0  0  0  0
    0.8527    1.5047    0.0000 C   0  0  0  0  0  0  0  0  0  0  0  0
    1.7054    0.0000    0.0000 C   0  0  0  0  0  0  0  0  0  0  0  0
    0.8527    0.5016    0.0000 C   0  0  0  0  0  0  0  0  0  0  0  0
    0.0000    0.0000    0.0000 F   0  0  0  0  0  0  0  0  0  0  0  0
  1  2  1  0  0  0  0 
  2  3  1  0  0  0  0 
  3  4  1  0  0  0  0 
  4  5  2  0  0  0  0 
  4  6  1  0  0  0  0 
  7  6  2  0  0  0  0 
  6  8  1  0  0  0  0 
  9  7  1  0  0  0  0 
  8 10  2  0  0  0  0 
 11  9  2  0  0  0  0 
 10 11  1  0  0  0  0 
 12 11  1  0  0  0  0 
M  END
> <Name>
ethyl 4-fluorobenzoate

> <Source>
NIST2DMolFile

> <Tox>
3.010

> <CAS>
451-46-7

$$$$

  CDK

  9  9  0  0  0  0  0  0  0  0999 V2000
    0.0000   -2.6589    0.0000 O   0  0  0  0  0  0  0  0  0  0  0  0
    1.1520   -1.9953    0.0000 C   0  0  0  0  0  0  0  0  0  0  0  0
    1.1520   -0.6636    0.0000 C   0  0  0  0  0  0  0  0  0  0  0  0
    2.3041   -2.6589    0.0000 C   0  0  0  0  0  0  0  0  0  0  0  0
    2.3041   -0.0000    0.0000 C   0  0  0  0  0  0  0  0  0  0  0  0
    0.0000   -0.0000    0.0000 O   0  0  0  0  0  0  0  0  0  0  0  0
    3.4561   -1.9953    0.0000 C   0  0  0  0  0  0  0  0  0  0  0  0
    3.4561   -0.6636    0.0000 C   0  0  0  0  0  0  0  0  0  0  0  0
    4.6082   -2.6589    0.0000 C   0  0  0  0  0  0  0  0  0  0  0  0
  1  2  1  0  0  0  0 
  2  3  2  0  0  0  0 
  2  4  1  0  0  0  0 
  3  5  1  0  0  0  0 
  3  6  1  0  0  0  0 
  7  4  2  0  0  0  0 
  5  8  2  0  0  0  0 
  8  7  1  0  0  0  0 
  7  9  1  0  0  0  0 
M  END
> <Name>
1,2-Benzenediol, 4-methyl- (9CI)

> <Source>
DSSTox2DMolFile

> <Tox>
3.370

> <CAS>
452-86-8

$$$$

  CDK

  9  9  0  0  0  0  0  0  0  0999 V2000
    0.0000    0.0000    0.0000 O   0  0  0  0  0  0  0  0  0  0  0  0
    0.4998    0.8496    0.0000 C   0  0  0  0  0  0  0  0  0  0  0  0
    1.4994    0.8496    0.0000 C   0  0  0  0  0  0  0  0  0  0  0  0
    1.9992    1.7493    0.0000 C   0  0  0  0  0  0  0  0  0  0  0  0
    1.9992    0.0000    0.0000 C   0  0  0  0  0  0  0  0  0  0  0  0
    2.9988    1.7493    0.0000 C   0  0  0  0  0  0  0  0  0  0  0  0
    2.9988    0.0000    0.0000 C   0  0  0  0  0  0  0  0  0  0  0  0
    3.4985    2.5989    0.0000 F   0  0  0  0  0  0  0  0  0  0  0  0
    3.4985    0.8496    0.0000 C   0  0  0  0  0  0  0  0  0  0  0  0
  1  2  1  0  0  0  0 
  2  3  1  0  0  0  0 
  4  3  2  0  0  0  0 
  3  5  1  0  0  0  0 
  6  4  1  0  0  0  0 
  5  7  2  0  0  0  0 
  6  8  1  0  0  0  0 
  9  6  2  0  0  0  0 
  7  9  1  0  0  0  0 
M  END
> <Name>
3-Fluorobenzylic alcohol

> <Source>
NIST2DMolFile

> <Tox>
2.610

> <CAS>
456-47-3

$$$$

  CDK

  9  9  0  0  0  0  0  0  0  0999 V2000
    1.8316   -0.9381    4.0226 F   0  0  0  0  0  0  0  0  0  0  0  0
    1.8497   -0.9689    2.6836 C   0  0  0  0  0  0  0  0  0  0  0  0
    0.7994   -0.4058    1.9588 C   0  0  0  0  0  0  0  0  0  0  0  0
    2.9185   -1.5646    2.0141 C   0  0  0  0  0  0  0  0  0  0  0  0
    0.8178   -0.4385    0.5644 C   0  0  0  0  0  0  0  0  0  0  0  0
    2.9371   -1.5972    0.6197 C   0  0  0  0  0  0  0  0  0  0  0  0
    1.8867   -1.0341   -0.1051 C   0  0  0  0  0  0  0  0  0  0  0  0
    1.9065   -1.0699   -1.5959 C   0  0  0  0  0  0  0  0  0  0  0  0
    1.2685   -2.2578   -2.0485 O   0  0  0  0  0  0  0  0  0  0  0  0
  1  2  1  0  0  0  0 
  3  2  2  0  0  0  0 
  4  2  1  0  0  0  0 
  5  3  1  0  0  0  0 
  6  4  2  0  0  0  0 
  7  5  2  0  0  0  0 
  7  6  1  0  0  0  0 
  7  8  1  0  0  0  0 
  9  8  1  0  0  0  0 
M  END
> <Name>
Benzenemethanol, 4-fluoro- (9CI)

> <Source>
Chemidplus3DMolFile

> <Tox>
2.380

> <CAS>
459-56-3

$$$$

  CDK

  9  9  0  0  0  0  0  0  0  0999 V2000
    0.8469    1.4945    0.0000 C   0  0  0  0  0  0  0  0  0  0  0  0
    1.7435    1.9926    0.0000 C   0  0  0  0  0  0  0  0  0  0  0  0
    0.8469    0.4982    0.0000 C   0  0  0  0  0  0  0  0  0  0  0  0
    2.5904    1.4945    0.0000 C   0  0  0  0  0  0  0  0  0  0  0  0
    1.7435    0.0000    0.0000 C   0  0  0  0  0  0  0  0  0  0  0  0
    0.0000    0.0000    0.0000 F   0  0  0  0  0  0  0  0  0  0  0  0
    2.5904    0.4982    0.0000 C   0  0  0  0  0  0  0  0  0  0  0  0
    3.4373    1.9926    0.0000 C   0  0  0  0  0  0  0  0  0  0  0  0
    4.3340    1.4945    0.0000 O   0  0  0  0  0  0  0  0  0  0  0  0
  1  2  2  0  0  0  0 
  3  1  1  0  0  0  0 
  2  4  1  0  0  0  0 
  5  3  2  0  0  0  0 
  3  6  1  0  0  0  0 
  4  7  2  0  0  0  0 
  4  8  1  0  0  0  0 
  7  5  1  0  0  0  0 
  8  9  2  0  0  0  0 
M  END
> <Name>
Benzaldehyde, p-fluoro- (8CI)

> <Source>
NIST2DMolFile

> <Tox>
2.873

> <CAS>
459-57-4

$$$$

  CDK

 14 13  0  0  0  0  0  0  0  0999 V2000
   11.9750   -0.0000    0.0000 C   0  0  0  0  0  0  0  0  0  0  0  0
   11.3044   -1.1496    0.0000 C   0  0  0  0  0  0  0  0  0  0  0  0
    9.9752   -1.1496    0.0000 C   0  0  0  0  0  0  0  0  0  0  0  0
    9.3165   -2.3112    0.0000 C   0  0  0  0  0  0  0  0  0  0  0  0
    7.9873   -2.3112    0.0000 C   0  0  0  0  0  0  0  0  0  0  0  0
    7.3167   -3.4608    0.0000 C   0  0  0  0  0  0  0  0  0  0  0  0
    5.9875   -3.4608    0.0000 C   0  0  0  0  0  0  0  0  0  0  0  0
    5.3169   -2.3112    0.0000 O   0  0  0  0  0  0  0  0  0  0  0  0
    5.3169   -4.6104    0.0000 C   0  0  0  0  0  0  0  0  0  0  0  0
    3.9877   -4.6104    0.0000 C   0  0  0  0  0  0  0  0  0  0  0  0
    3.3290   -3.4608    0.0000 C   0  0  0  0  0  0  0  0  0  0  0  0
    1.9998   -3.4608    0.0000 C   0  0  0  0  0  0  0  0  0  0  0  0
    1.3292   -2.3112    0.0000 C   0  0  0  0  0  0  0  0  0  0  0  0
    0.0000   -2.3112    0.0000 C   0  0  0  0  0  0  0  0  0  0  0  0
  1  2  1  0  0  0  0 
  2  3  1  0  0  0  0 
  3  4  1  0  0  0  0 
  4  5  1  0  0  0  0 
  5  6  1  0  0  0  0 
  6  7  1  0  0  0  0 
  7  8  2  0  0  0  0 
  7  9  1  0  0  0  0 
  9 10  1  0  0  0  0 
 10 11  1  0  0  0  0 
 11 12  1  0  0  0  0 
 12 13  1  0  0  0  0 
 13 14  1  0  0  0  0 
M  END
> <Name>
Tridecan-7-one

> <Source>
DSSTox2DMolFile

> <Tox>
4.521

> <CAS>
462-18-0

$$$$

  CDK

 14 15  0  0  0  0  0  0  0  0999 V2000
   -4.0534    0.4403   -1.9226 O   0  0  0  0  0  0  0  0  0  0  0  0
   -3.0936   -0.3528   -1.3678 C   0  0  0  0  0  0  0  0  0  0  0  0
   -3.2400   -1.7382   -1.2361 C   0  0  0  0  0  0  0  0  0  0  0  0
   -1.9267    0.2688   -0.9220 C   0  0  0  0  0  0  0  0  0  0  0  0
   -2.2179   -2.4963   -0.6584 C   0  0  0  0  0  0  0  0  0  0  0  0
   -4.4776   -2.3881   -1.7106 C   0  0  0  0  0  0  0  0  0  0  0  0
   -0.9071   -0.4874   -0.3459 C   0  0  0  0  0  0  0  0  0  0  0  0
   -1.0492   -1.8691   -0.2126 C   0  0  0  0  0  0  0  0  0  0  0  0
   -2.3603   -3.9584   -0.5135 C   0  0  0  0  0  0  0  0  0  0  0  0
   -5.4022   -1.7686   -2.2221 O   0  0  0  0  0  0  0  0  0  0  0  0
   -4.5866   -3.8527   -1.5509 C   0  0  0  0  0  0  0  0  0  0  0  0
   -0.0165   -2.5525    0.3573 O   0  0  0  0  0  0  0  0  0  0  0  0
   -1.4943   -4.6672   -0.0156 O   0  0  0  0  0  0  0  0  0  0  0  0
   -3.6112   -4.5762   -0.9994 C   0  0  0  0  0  0  0  0  0  0  0  0
  1  2  1  0  0  0  0 
  3  2  2  0  0  0  0 
  2  4  1  0  0  0  0 
  3  5  1  0  0  0  0 
  3  6  1  0  0  0  0 
  4  7  2  0  0  0  0 
  5  8  2  0  0  0  0 
  5  9  1  0  0  0  0 
 10  6  2  0  0  0  0 
  6 11  1  0  0  0  0 
  8  7  1  0  0  0  0 
 12  8  1  0  0  0  0 
 13  9  2  0  0  0  0 
  9 14  1  0  0  0  0 
 11 14  2  0  0  0  0 
M  END
> <Name>
1,4-Naphthalenedione, 5,8-dihydroxy- (9CI)

> <Source>
Chemidplus3DMolFile

> <Tox>
5.830

> <CAS>
475-38-7

$$$$

  CDK

 13 14  0  0  0  0  0  0  0  0999 V2000
    2.2945   -3.3380    0.0000 C   0  0  0  0  0  0  0  0  0  0  0  0
    2.2945   -2.0017    0.0000 C   0  0  0  0  0  0  0  0  0  0  0  0
    3.4498   -3.9928    0.0000 C   0  0  0  0  0  0  0  0  0  0  0  0
    1.1393   -3.9928    0.0000 C   0  0  0  0  0  0  0  0  0  0  0  0
    3.4498   -1.3309    0.0000 C   0  0  0  0  0  0  0  0  0  0  0  0
    1.1393   -1.3309    0.0000 C   0  0  0  0  0  0  0  0  0  0  0  0
    4.5997   -3.3380    0.0000 C   0  0  0  0  0  0  0  0  0  0  0  0
    0.0000   -3.3380    0.0000 C   0  0  0  0  0  0  0  0  0  0  0  0
    1.1393   -5.3238    0.0000 O   0  0  0  0  0  0  0  0  0  0  0  0
    4.5997   -2.0017    0.0000 C   0  0  0  0  0  0  0  0  0  0  0  0
    3.4498   -0.0000    0.0000 O   0  0  0  0  0  0  0  0  0  0  0  0
    0.0000   -2.0017    0.0000 C   0  0  0  0  0  0  0  0  0  0  0  0
    1.1393   -0.0000    0.0000 O   0  0  0  0  0  0  0  0  0  0  0  0
  1  2  2  0  0  0  0 
  1  3  1  0  0  0  0 
  1  4  1  0  0  0  0 
  2  5  1  0  0  0  0 
  2  6  1  0  0  0  0 
  3  7  2  0  0  0  0 
  4  8  1  0  0  0  0 
  4  9  2  0  0  0  0 
  5 10  2  0  0  0  0 
  5 11  1  0  0  0  0 
  6 12  1  0  0  0  0 
  6 13  2  0  0  0  0 
 10  7  1  0  0  0  0 
  8 12  2  0  0  0  0 
M  END
> <Name>
1,4-Naphthoquinone, 5-hydroxy- (8CI)

> <Source>
DSSTox2DMolFile

> <Tox>
6.330

> <CAS>
481-39-0

$$$$

  CDK

 14 15  0  0  0  0  0  0  0  0999 V2000
    2.6066    4.0101    0.0000 O   0  0  0  0  0  0  0  0  0  0  0  0
    2.6066    3.0076    0.0000 C   0  0  0  0  0  0  0  0  0  0  0  0
    1.7043    2.5063    0.0000 C   0  0  0  0  0  0  0  0  0  0  0  0
    3.4587    2.5063    0.0000 C   0  0  0  0  0  0  0  0  0  0  0  0
    1.7043    1.5038    0.0000 C   0  0  0  0  0  0  0  0  0  0  0  0
    0.8521    3.0076    0.0000 C   0  0  0  0  0  0  0  0  0  0  0  0
    4.3109    3.0076    0.0000 C   0  0  0  0  0  0  0  0  0  0  0  0
    3.4587    1.5038    0.0000 C   0  0  0  0  0  0  0  0  0  0  0  0
    2.6066    1.0025    0.0000 C   0  0  0  0  0  0  0  0  0  0  0  0
    0.8521    1.0025    0.0000 C   0  0  0  0  0  0  0  0  0  0  0  0
    0.0000    2.5063    0.0000 C   0  0  0  0  0  0  0  0  0  0  0  0
    2.6066    0.0000    0.0000 O   0  0  0  0  0  0  0  0  0  0  0  0
    0.8521    0.0000    0.0000 O   0  0  0  0  0  0  0  0  0  0  0  0
    0.0000    1.5038    0.0000 C   0  0  0  0  0  0  0  0  0  0  0  0
  1  2  2  0  0  0  0 
  3  2  1  0  0  0  0 
  2  4  1  0  0  0  0 
  3  5  2  0  0  0  0 
  6  3  1  0  0  0  0 
  4  7  1  0  0  0  0 
  4  8  2  0  0  0  0 
  9  5  1  0  0  0  0 
  5 10  1  0  0  0  0 
 11  6  2  0  0  0  0 
  8  9  1  0  0  0  0 
  9 12  2  0  0  0  0 
 10 13  1  0  0  0  0 
 10 14  2  0  0  0  0 
 14 11  1  0  0  0  0 
M  END
> <Name>
1,4-Naphthalenedione, 5-hydroxy-2-methyl- (9CI)

> <Source>
NIST2DMolFile

> <Tox>
5.200

> <CAS>
481-42-5

$$$$

  CDK

 11 11  0  0  0  0  0  0  0  0999 V2000
    2.5913    0.5081    0.0000 C   0  0  0  0  0  0  0  0  0  0  0  0
    2.5913    1.5243    0.0000 C   0  0  0  0  0  0  0  0  0  0  0  0
    1.7784    0.0508    0.0000 C   0  0  0  0  0  0  0  0  0  0  0  0
    3.5059    0.0000    0.0000 O   0  0  0  0  0  0  0  0  0  0  0  0
    1.7784    1.9816    0.0000 C   0  0  0  0  0  0  0  0  0  0  0  0
    3.5059    2.0324    0.0000 C   0  0  0  0  0  0  0  0  0  0  0  0
    0.9146    0.5589    0.0000 C   0  0  0  0  0  0  0  0  0  0  0  0
    0.9146    1.5243    0.0000 C   0  0  0  0  0  0  0  0  0  0  0  0
    1.7784    2.9978    0.0000 O   0  0  0  0  0  0  0  0  0  0  0  0
    3.5059    3.0486    0.0000 O   0  0  0  0  0  0  0  0  0  0  0  0
    0.0000    0.0508    0.0000 O   0  0  0  0  0  0  0  0  0  0  0  0
  2  1  2  0  0  0  0 
  1  3  1  0  0  0  0 
  1  4  1  0  0  0  0 
  5  2  1  0  0  0  0 
  2  6  1  0  0  0  0 
  3  7  2  0  0  0  0 
  8  5  2  0  0  0  0 
  5  9  1  0  0  0  0 
  6 10  2  0  0  0  0 
  7  8  1  0  0  0  0 
  7 11  1  0  0  0  0 
M  END
> <Name>
Benzaldehyde, 2,4,6-trihydroxy-

> <Source>
NIST2DMolFile

> <Tox>
3.128

> <CAS>
487-70-7

$$$$

  CDK

 12 12  0  0  0  0  0  0  0  0999 V2000
    1.7391    1.9875    0.0000 O   0  0  0  0  0  0  0  0  0  0  0  0
    0.8944    1.4906    0.0000 C   0  0  0  0  0  0  0  0  0  0  0  0
    2.5838    1.4906    0.0000 C   0  0  0  0  0  0  0  0  0  0  0  0
    0.0000    1.9875    0.0000 C   0  0  0  0  0  0  0  0  0  0  0  0
    3.4782    1.9875    0.0000 C   0  0  0  0  0  0  0  0  0  0  0  0
    2.5838    0.4969    0.0000 C   0  0  0  0  0  0  0  0  0  0  0  0
    3.4782    2.9813    0.0000 O   0  0  0  0  0  0  0  0  0  0  0  0
    4.3229    1.4906    0.0000 C   0  0  0  0  0  0  0  0  0  0  0  0
    3.4782    0.0000    0.0000 C   0  0  0  0  0  0  0  0  0  0  0  0
    5.1676    2.0372    0.0000 C   0  0  0  0  0  0  0  0  0  0  0  0
    4.3229    0.4969    0.0000 C   0  0  0  0  0  0  0  0  0  0  0  0
    6.0620    1.5403    0.0000 O   0  0  0  0  0  0  0  0  0  0  0  0
  1  2  1  0  0  0  0 
  1  3  1  0  0  0  0 
  2  4  1  0  0  0  0 
  3  5  2  0  0  0  0 
  6  3  1  0  0  0  0 
  5  7  1  0  0  0  0 
  5  8  1  0  0  0  0 
  9  6  2  0  0  0  0 
  8 10  1  0  0  0  0 
  8 11  2  0  0  0  0 
 11  9  1  0  0  0  0 
 10 12  2  0  0  0  0 
M  END
> <Name>
Salicylaldehyde, 3-ethoxy- (8CI)

> <Source>
NIST2DMolFile

> <Tox>
3.850

> <CAS>
492-88-6

$$$$

  CDK

 10 11  0  0  0  0  0  0  0  0999 V2000
    2.4969    0.7990    0.0000 C   0  0  0  0  0  0  0  0  0  0  0  0
    3.0962    0.0000    0.0000 C   0  0  0  0  0  0  0  0  0  0  0  0
    3.1461    1.5980    0.0000 S   0  0  0  0  0  0  0  0  0  0  0  0
    1.5481    0.7990    0.0000 C   0  0  0  0  0  0  0  0  0  0  0  0
    4.0950    0.2996    0.0000 C   0  0  0  0  0  0  0  0  0  0  0  0
    4.0950    1.2984    0.0000 C   0  0  0  0  0  0  0  0  0  0  0  0
    0.9488    1.5980    0.0000 C   0  0  0  0  0  0  0  0  0  0  0  0
    0.9488    0.0000    0.0000 S   0  0  0  0  0  0  0  0  0  0  0  0
    0.0000    1.2984    0.0000 C   0  0  0  0  0  0  0  0  0  0  0  0
    0.0000    0.2996    0.0000 C   0  0  0  0  0  0  0  0  0  0  0  0
  1  2  2  0  0  0  0 
  3  1  1  0  0  0  0 
  1  4  1  0  0  0  0 
  2  5  1  0  0  0  0 
  6  3  1  0  0  0  0 
  4  7  2  0  0  0  0 
  8  4  1  0  0  0  0 
  5  6  2  0  0  0  0 
  7  9  1  0  0  0  0 
 10  8  1  0  0  0  0 
  9 10  2  0  0  0  0 
M  END
> <Name>
2,2'-Bithiophene

> <Source>
NIST2DMolFile

> <Tox>
4.040

> <CAS>
492-97-7

$$$$

  CDK

 10 10  0  0  0  0  0  0  0  0999 V2000
    3.9889   -2.3040    0.0000 C   0  0  0  0  0  0  0  0  0  0  0  0
    4.6545   -3.4536    0.0000 O   0  0  0  0  0  0  0  0  0  0  0  0
    4.6545   -1.1497    0.0000 N   0  0  0  0  0  0  0  0  0  0  0  0
    2.6577   -2.3040    0.0000 C   0  0  0  0  0  0  0  0  0  0  0  0
    3.9889   -0.0000    0.0000 O   0  0  0  0  0  0  0  0  0  0  0  0
    1.9968   -3.4536    0.0000 C   0  0  0  0  0  0  0  0  0  0  0  0
    1.9968   -1.1497    0.0000 C   0  0  0  0  0  0  0  0  0  0  0  0
    0.6656   -3.4536    0.0000 C   0  0  0  0  0  0  0  0  0  0  0  0
    0.6656   -1.1497    0.0000 C   0  0  0  0  0  0  0  0  0  0  0  0
    0.0000   -2.3040    0.0000 C   0  0  0  0  0  0  0  0  0  0  0  0
  1  2  2  0  0  0  0 
  1  3  1  0  0  0  0 
  1  4  1  0  0  0  0 
  3  5  1  0  0  0  0 
  4  6  2  0  0  0  0 
  4  7  1  0  0  0  0 
  6  8  1  0  0  0  0 
  9  7  2  0  0  0  0 
  8 10  2  0  0  0  0 
 10  9  1  0  0  0  0 
M  END
> <Name>
Benzamide, N-hydroxy-

> <Source>
DSSTox2DMolFile

> <Tox>
3.380

> <CAS>
495-18-1

$$$$

  CDK

  6  5  0  0  0  0  0  0  0  0999 V2000
    0.0000    0.0000    0.0000 C   0  0  0  0  0  0  0  0  0  0  0  0
    0.4400    0.4000    1.4000 C   0  0  0  0  0  0  0  0  0  0  0  0
    0.9000    1.6400    1.5800 C   0  0  0  0  0  0  0  0  0  0  0  0
    1.3400    2.0400    2.9600 C   0  0  0  0  0  0  0  0  0  0  0  0
    1.0200    2.6200    0.5000 C   0  0  0  0  0  0  0  0  0  0  0  0
    0.2800    2.5800   -0.4600 O   0  0  0  0  0  0  0  0  0  0  0  0
  1  2  1  0  0  0  0 
  2  3  2  0  0  0  0 
  3  4  1  0  0  0  0 
  3  5  1  0  0  0  0 
  5  6  2  0  0  0  0 
M  END
> <Name>
(E)-2-methylbut-2-enal

> <Source>
NIH3DMolFile

> <Tox>
2.860

> <CAS>
497-03-0

$$$$

  CDK

 12 12  0  0  0  0  0  0  0  0999 V2000
    1.4958    1.6953    0.0000 C   0  0  0  0  0  0  0  0  0  0  0  0
    1.9945    0.8476    0.0000 C   0  0  0  0  0  0  0  0  0  0  0  0
    0.4986    1.6953    0.0000 C   0  0  0  0  0  0  0  0  0  0  0  0
    1.9945    2.5928    0.0000 C   0  0  0  0  0  0  0  0  0  0  0  0
    2.9917    0.8476    0.0000 C   0  0  0  0  0  0  0  0  0  0  0  0
    0.0000    2.5928    0.0000 O   0  0  0  0  0  0  0  0  0  0  0  0
    0.0000    0.8476    0.0000 C   0  0  0  0  0  0  0  0  0  0  0  0
    2.9917    2.5928    0.0000 C   0  0  0  0  0  0  0  0  0  0  0  0
    3.4903    0.0000    0.0000 O   0  0  0  0  0  0  0  0  0  0  0  0
    3.4903    1.6953    0.0000 C   0  0  0  0  0  0  0  0  0  0  0  0
    4.4875    0.0000    0.0000 C   0  0  0  0  0  0  0  0  0  0  0  0
    4.4875    1.6953    0.0000 O   0  0  0  0  0  0  0  0  0  0  0  0
  1  2  2  0  0  0  0 
  1  3  1  0  0  0  0 
  4  1  1  0  0  0  0 
  2  5  1  0  0  0  0 
  3  6  2  0  0  0  0 
  3  7  1  0  0  0  0 
  8  4  2  0  0  0  0 
  5  9  1  0  0  0  0 
  5 10  2  0  0  0  0 
 10  8  1  0  0  0  0 
  9 11  1  0  0  0  0 
 10 12  1  0  0  0  0 
M  END
> <Name>
Ethanone, 1-(4-hydroxy-3-methoxyphenyl)-

> <Source>
NIST2DMolFile

> <Tox>
2.880

> <CAS>
498-02-2

$$$$

  CDK

  7  7  0  0  0  0  0  0  0  0999 V2000
    4.2594    0.0000    0.0000 O   0  0  0  0  0  0  0  0  0  0  0  0
    3.5495    1.2110    0.0000 C   0  0  0  0  0  0  0  0  0  0  0  0
    2.1714    1.2110    0.0000 C   0  0  0  0  0  0  0  0  0  0  0  0
    1.3363    0.0835    0.0000 C   0  0  0  0  0  0  0  0  0  0  0  0
    1.3363    2.2967    0.0000 C   0  0  0  0  0  0  0  0  0  0  0  0
    0.0000    0.5011    0.0000 C   0  0  0  0  0  0  0  0  0  0  0  0
    0.0000    1.8791    0.0000 O   0  0  0  0  0  0  0  0  0  0  0  0
  1  2  2  0  0  0  0 
  2  3  1  0  0  0  0 
  3  4  1  0  0  0  0 
  3  5  2  0  0  0  0 
  4  6  2  0  0  0  0 
  7  5  1  0  0  0  0 
  6  7  1  0  0  0  0 
M  END
> <Name>
furan-3-carbaldehyde

> <Source>
IndexNet2DMolFile

> <Tox>
3.000

> <CAS>
498-60-2

$$$$

  CDK

  7  7  0  0  0  0  0  0  0  0999 V2000
   -2.2151    0.5544    0.0003 S   0  0  0  0  0  0  0  0  0  0  0  0
   -0.6307    1.2042   -0.0001 C   0  0  0  0  0  0  0  0  0  0  0  0
   -1.6154   -1.0495    0.0000 C   0  0  0  0  0  0  0  0  0  0  0  0
    0.3321    0.2190   -0.0002 C   0  0  0  0  0  0  0  0  0  0  0  0
   -0.2385   -1.0866   -0.0002 C   0  0  0  0  0  0  0  0  0  0  0  0
    1.7404    0.5144   -0.0002 C   0  0  0  0  0  0  0  0  0  0  0  0
    2.6272   -0.3559    0.0003 O   0  0  0  0  0  0  0  0  0  0  0  0
  1  2  1  0  0  0  0 
  1  3  1  0  0  0  0 
  4  2  2  0  0  0  0 
  5  3  2  0  0  0  0 
  4  5  1  0  0  0  0 
  4  6  1  0  0  0  0 
  7  6  2  0  0  0  0 
M  END
> <Name>
thiophene-3-carbaldehyde

> <Source>
Chemidplus3DMolFile

> <Tox>
3.400

> <CAS>
498-62-4

$$$$

  CDK

  8  8  0  0  0  0  0  0  0  0999 V2000
    3.9877   -2.3033    0.0000 N   0  0  0  0  0  0  0  0  0  0  0  0
    2.6569   -2.3033    0.0000 C   0  0  0  0  0  0  0  0  0  0  0  0
    4.6531   -1.1540    0.0000 C   0  0  0  0  0  0  0  0  0  0  0  0
    1.9962   -1.1540    0.0000 C   0  0  0  0  0  0  0  0  0  0  0  0
    3.9877   -0.0000    0.0000 C   0  0  0  0  0  0  0  0  0  0  0  0
    0.6654   -1.1540    0.0000 C   0  0  0  0  0  0  0  0  0  0  0  0
    2.6569   -0.0000    0.0000 C   0  0  0  0  0  0  0  0  0  0  0  0
    0.0000   -0.0000    0.0000 O   0  0  0  0  0  0  0  0  0  0  0  0
  1  2  2  0  0  0  0 
  1  3  1  0  0  0  0 
  2  4  1  0  0  0  0 
  5  3  2  0  0  0  0 
  4  6  1  0  0  0  0 
  4  7  2  0  0  0  0 
  7  5  1  0  0  0  0 
  6  8  2  0  0  0  0 
M  END
> <Name>
3-Pyridinecarboxaldehyde

> <Source>
DSSTox2DMolFile

> <Tox>
2.870

> <CAS>
500-22-1

$$$$

  CDK

 10 10  0  0  0  0  0  0  0  0999 V2000
    1.0070    0.0000    0.0000 C   0  0  0  0  0  0  0  0  0  0  0  0
    1.5105    0.8559    0.0000 C   0  0  0  0  0  0  0  0  0  0  0  0
    0.0000    0.0000    0.0000 O   0  0  0  0  0  0  0  0  0  0  0  0
    2.5174    0.8559    0.0000 C   0  0  0  0  0  0  0  0  0  0  0  0
    3.0209    1.7119    0.0000 C   0  0  0  0  0  0  0  0  0  0  0  0
    3.0209    0.0000    0.0000 C   0  0  0  0  0  0  0  0  0  0  0  0
    4.0279    1.7119    0.0000 C   0  0  0  0  0  0  0  0  0  0  0  0
    4.0279    0.0000    0.0000 C   0  0  0  0  0  0  0  0  0  0  0  0
    4.5314    0.8559    0.0000 C   0  0  0  0  0  0  0  0  0  0  0  0
    5.5383    0.8559    0.0000 O   0  0  0  0  0  0  0  0  0  0  0  0
  1  2  1  0  0  0  0 
  1  3  1  0  0  0  0 
  2  4  1  0  0  0  0 
  5  4  2  0  0  0  0 
  4  6  1  0  0  0  0 
  7  5  1  0  0  0  0 
  6  8  2  0  0  0  0 
  9  7  2  0  0  0  0 
  8  9  1  0  0  0  0 
  9 10  1  0  0  0  0 
M  END
> <Name>
4-Hydroxyphenethyl alcohol

> <Source>
NIST2DMolFile

> <Tox>
2.170

> <CAS>
501-94-0

$$$$

  CDK

  8  8  0  0  0  0  0  0  0  0999 V2000
    1.8688   -0.0000    0.0000 O   0  0  0  0  0  0  0  0  0  0  0  0
    2.8748   -0.8628    0.0000 C   0  0  0  0  0  0  0  0  0  0  0  0
    0.5930   -0.2699    0.0000 C   0  0  0  0  0  0  0  0  0  0  0  0
    2.8748   -2.2041    0.0000 C   0  0  0  0  0  0  0  0  0  0  0  0
    4.0893   -0.3026    0.0000 O   0  0  0  0  0  0  0  0  0  0  0  0
    0.0000   -1.5171    0.0000 C   0  0  0  0  0  0  0  0  0  0  0  0
    1.8688   -3.0016    0.0000 C   0  0  0  0  0  0  0  0  0  0  0  0
    0.5930   -2.7480    0.0000 C   0  0  0  0  0  0  0  0  0  0  0  0
  1  2  1  0  0  0  0 
  1  3  1  0  0  0  0 
  2  4  1  0  0  0  0 
  2  5  2  0  0  0  0 
  6  3  1  0  0  0  0 
  4  7  1  0  0  0  0 
  8  6  1  0  0  0  0 
  7  8  1  0  0  0  0 
M  END
> <Name>
Hexanoic acid, epsilon-lactone

> <Source>
DSSTox2DMolFile

> <Tox>
1.739

> <CAS>
502-44-3

$$$$

  CDK

  7  6  0  0  0  0  0  0  0  0999 V2000
    1.1545   -1.3346    0.0000 C   0  0  0  0  0  0  0  0  0  0  0  0
    2.3090   -1.9903    0.0000 C   0  0  0  0  0  0  0  0  0  0  0  0
    0.0000   -1.9903    0.0000 O   0  0  0  0  0  0  0  0  0  0  0  0
    1.1545   -0.0000    0.0000 O   0  0  0  0  0  0  0  0  0  0  0  0
    3.4634   -1.3346    0.0000 C   0  0  0  0  0  0  0  0  0  0  0  0
    4.6179   -1.9903    0.0000 C   0  0  0  0  0  0  0  0  0  0  0  0
    3.4634   -0.0000    0.0000 C   0  0  0  0  0  0  0  0  0  0  0  0
  1  2  1  0  0  0  0 
  1  3  1  0  0  0  0 
  1  4  2  0  0  0  0 
  2  5  1  0  0  0  0 
  5  6  1  0  0  0  0 
  5  7  1  0  0  0  0 
M  END
> <Name>
Butanoic acid, 3-methyl-

> <Source>
DSSTox2DMolFile

> <Tox>
2.659

> <CAS>
503-74-2

$$$$

  CDK

  8  8  0  0  0  0  0  0  0  0999 V2000
    0.0000    1.7462    0.0000 O   0  0  0  0  0  0  0  0  0  0  0  0
    0.9978    1.7462    0.0000 C   0  0  0  0  0  0  0  0  0  0  0  0
    1.4967    0.8481    0.0000 C   0  0  0  0  0  0  0  0  0  0  0  0
    1.4967    2.5943    0.0000 C   0  0  0  0  0  0  0  0  0  0  0  0
    2.4945    0.8481    0.0000 C   0  0  0  0  0  0  0  0  0  0  0  0
    2.4945    2.5943    0.0000 C   0  0  0  0  0  0  0  0  0  0  0  0
    2.9934    0.0000    0.0000 O   0  0  0  0  0  0  0  0  0  0  0  0
    2.9934    1.7462    0.0000 C   0  0  0  0  0  0  0  0  0  0  0  0
  1  2  2  0  0  0  0 
  2  3  1  0  0  0  0 
  4  2  1  0  0  0  0 
  3  5  1  0  0  0  0 
  6  4  1  0  0  0  0 
  5  7  2  0  0  0  0 
  5  8  1  0  0  0  0 
  8  6  1  0  0  0  0 
M  END
> <Name>
1,3-Cyclohexanedione

> <Source>
NIST2DMolFile

> <Tox>
2.071

> <CAS>
504-02-9

$$$$

  CDK

  6  6  0  0  0  0  0  0  0  0999 V2000
    0.6619   -0.0000    0.0000 C   0  0  0  0  0  0  0  0  0  0  0  0
    1.9964   -0.0000    0.0000 S   0  0  0  0  0  0  0  0  0  0  0  0
    0.0000   -1.1510    0.0000 C   0  0  0  0  0  0  0  0  0  0  0  0
    2.6583   -1.1510    0.0000 C   0  0  0  0  0  0  0  0  0  0  0  0
    0.6619   -2.3021    0.0000 S   0  0  0  0  0  0  0  0  0  0  0  0
    1.9964   -2.3021    0.0000 C   0  0  0  0  0  0  0  0  0  0  0  0
  1  2  1  0  0  0  0 
  1  3  1  0  0  0  0 
  2  4  1  0  0  0  0 
  5  3  1  0  0  0  0 
  4  6  1  0  0  0  0 
  6  5  1  0  0  0  0 
M  END
> <Name>
1,4-Dithiane

> <Source>
DSSTox2DMolFile

> <Tox>
2.890

> <CAS>
505-29-3

$$$$

  CDK

 12 11  0  0  0  0  0  0  0  0999 V2000
    9.2170   -0.0000    0.0000 O   0  0  0  0  0  0  0  0  0  0  0  0
    8.0649   -0.6728    0.0000 C   0  0  0  0  0  0  0  0  0  0  0  0
    8.0649   -2.0001    0.0000 C   0  0  0  0  0  0  0  0  0  0  0  0
    6.9128   -0.0000    0.0000 O   0  0  0  0  0  0  0  0  0  0  0  0
    6.9128   -2.6637    0.0000 C   0  0  0  0  0  0  0  0  0  0  0  0
    5.7606   -2.0001    0.0000 C   0  0  0  0  0  0  0  0  0  0  0  0
    4.6085   -2.6637    0.0000 C   0  0  0  0  0  0  0  0  0  0  0  0
    3.4564   -2.0001    0.0000 C   0  0  0  0  0  0  0  0  0  0  0  0
    2.3043   -2.6637    0.0000 C   0  0  0  0  0  0  0  0  0  0  0  0
    1.1521   -2.0001    0.0000 C   0  0  0  0  0  0  0  0  0  0  0  0
    0.0000   -2.6637    0.0000 O   0  0  0  0  0  0  0  0  0  0  0  0
    1.1521   -0.6728    0.0000 O   0  0  0  0  0  0  0  0  0  0  0  0
  1  2  1  0  0  0  0 
  2  3  1  0  0  0  0 
  2  4  2  0  0  0  0 
  3  5  1  0  0  0  0 
  5  6  1  0  0  0  0 
  6  7  1  0  0  0  0 
  7  8  1  0  0  0  0 
  8  9  1  0  0  0  0 
  9 10  1  0  0  0  0 
 10 11  1  0  0  0  0 
 10 12  2  0  0  0  0 
M  END
> <Name>
Octanedioic acid

> <Source>
DSSTox2DMolFile

> <Tox>
2.488

> <CAS>
505-48-6

$$$$

  CDK

  8  7  0  0  0  0  0  0  0  0999 V2000
    3.3237   -1.9950    0.0000 O   0  0  0  0  0  0  0  0  0  0  0  0
    1.9950   -1.9950    0.0000 P   0  0  0  0  0  0  0  0  0  0  0  0
    1.9950   -3.3237    0.0000 O   0  0  0  0  0  0  0  0  0  0  0  0
    0.6663   -1.9950    0.0000 O   0  0  0  0  0  0  0  0  0  0  0  0
    1.9950   -0.6663    0.0000 O   0  0  0  0  0  0  0  0  0  0  0  0
    3.1481   -3.9900    0.0000 C   0  0  0  0  0  0  0  0  0  0  0  0
    0.0000   -3.1481    0.0000 C   0  0  0  0  0  0  0  0  0  0  0  0
    3.1481   -0.0000    0.0000 C   0  0  0  0  0  0  0  0  0  0  0  0
  1  2  2  0  0  0  0 
  2  3  1  0  0  0  0 
  2  4  1  0  0  0  0 
  2  5  1  0  0  0  0 
  3  6  1  0  0  0  0 
  4  7  1  0  0  0  0 
  5  8  1  0  0  0  0 
M  END
> <Name>
Phosphoric acid, trimethyl ester

> <Source>
DSSTox2DMolFile

> <Tox>
1.180

> <CAS>
512-56-1

$$$$

  CDK

  5  4  0  0  0  0  0  0  0  0999 V2000
    1.7492    1.4993    0.0000 C   0  0  0  0  0  0  0  0  0  0  0  0
    0.8496    0.9995    0.0000 C   0  0  0  0  0  0  0  0  0  0  0  0
    2.5988    0.9995    0.0000 O   0  0  0  0  0  0  0  0  0  0  0  0
    0.8496    0.0000    0.0000 C   0  0  0  0  0  0  0  0  0  0  0  0
    0.0000    1.4993    0.0000 C   0  0  0  0  0  0  0  0  0  0  0  0
  1  2  1  0  0  0  0 
  1  3  1  0  0  0  0 
  2  4  1  0  0  0  0 
  2  5  2  0  0  0  0 
M  END
> <Name>
2-Propen-1-ol, 2-methyl-

> <Source>
NIST2DMolFile

> <Tox>
1.337

> <CAS>
513-42-8

$$$$

  CDK

  6  5  0  0  0  0  0  0  0  0999 V2000
    1.3307   -0.0000    0.0000 C   0  0  0  0  0  0  0  0  0  0  0  0
    1.9943   -1.1509    0.0000 C   0  0  0  0  0  0  0  0  0  0  0  0
    1.3307   -2.3053    0.0000 C   0  0  0  0  0  0  0  0  0  0  0  0
    3.3250   -1.1509    0.0000 O   0  0  0  0  0  0  0  0  0  0  0  0
    1.9943   -3.4563    0.0000 Cl  0  0  0  0  0  0  0  0  0  0  0  0
    0.0000   -2.3053    0.0000 Cl  0  0  0  0  0  0  0  0  0  0  0  0
  1  2  1  0  0  0  0 
  2  3  1  0  0  0  0 
  2  4  2  0  0  0  0 
  3  5  1  0  0  0  0 
  3  6  1  0  0  0  0 
M  END
> <Name>
2-Propanone, 1,1-dichloro-

> <Source>
DSSTox2DMolFile

> <Tox>
3.641

> <CAS>
513-88-2

$$$$

  CDK

 12 13  0  0  0  0  0  0  0  0999 V2000
    4.8109   -0.9956    0.1014 O   0  0  0  0  0  0  0  0  0  0  0  0
    4.1692   -2.0335    0.0710 C   0  0  0  0  0  0  0  0  0  0  0  0
    2.6959   -2.0685    0.0343 C   0  0  0  0  0  0  0  0  0  0  0  0
    4.9219   -3.3359    0.0709 C   0  0  0  0  0  0  0  0  0  0  0  0
    2.0481   -3.3101    0.0007 C   0  0  0  0  0  0  0  0  0  0  0  0
    1.9664   -0.8760    0.0338 C   0  0  0  0  0  0  0  0  0  0  0  0
    6.1427   -3.3140    0.1016 O   0  0  0  0  0  0  0  0  0  0  0  0
    4.1472   -4.5902    0.0346 C   0  0  0  0  0  0  0  0  0  0  0  0
    2.8110   -4.5606    0.0019 C   0  0  0  0  0  0  0  0  0  0  0  0
    0.6486   -3.3403   -0.0336 C   0  0  0  0  0  0  0  0  0  0  0  0
    0.5737   -0.9222   -0.0004 C   0  0  0  0  0  0  0  0  0  0  0  0
   -0.0841   -2.1511   -0.0341 C   0  0  0  0  0  0  0  0  0  0  0  0
  1  2  2  0  0  0  0 
  3  2  1  0  0  0  0 
  2  4  1  0  0  0  0 
  3  5  1  0  0  0  0 
  3  6  2  0  0  0  0 
  7  4  2  0  0  0  0 
  4  8  1  0  0  0  0 
  5  9  1  0  0  0  0 
  5 10  2  0  0  0  0 
  6 11  1  0  0  0  0 
  9  8  2  0  0  0  0 
 10 12  1  0  0  0  0 
 11 12  2  0  0  0  0 
M  END
> <Name>
1,2-Naphthalenedione

> <Source>
Chemidplus3DMolFile

> <Tox>
6.200

> <CAS>
524-42-5

$$$$

  CDK

 17 19  0  0  0  0  0  0  0  0999 V2000
    1.9959   -3.4561    0.0000 C   0  0  0  0  0  0  0  0  0  0  0  0
    0.6653   -3.4561    0.0000 C   0  0  0  0  0  0  0  0  0  0  0  0
    2.6612   -2.3070    0.0000 C   0  0  0  0  0  0  0  0  0  0  0  0
    0.0000   -2.3070    0.0000 C   0  0  0  0  0  0  0  0  0  0  0  0
    1.9959   -1.1492    0.0000 C   0  0  0  0  0  0  0  0  0  0  0  0
    3.9918   -2.3070    0.0000 C   0  0  0  0  0  0  0  0  0  0  0  0
    0.6653   -1.1492    0.0000 C   0  0  0  0  0  0  0  0  0  0  0  0
    4.6485   -1.1492    0.0000 C   0  0  0  0  0  0  0  0  0  0  0  0
    4.6485   -3.4561    0.0000 O   0  0  0  0  0  0  0  0  0  0  0  0
    5.9791   -1.1492    0.0000 C   0  0  0  0  0  0  0  0  0  0  0  0
    5.9791   -3.4561    0.0000 C   0  0  0  0  0  0  0  0  0  0  0  0
    6.6444   -0.0000    0.0000 O   0  0  0  0  0  0  0  0  0  0  0  0
    6.6444   -2.3070    0.0000 C   0  0  0  0  0  0  0  0  0  0  0  0
    6.6444   -4.6053    0.0000 C   0  0  0  0  0  0  0  0  0  0  0  0
    7.9750   -2.3070    0.0000 C   0  0  0  0  0  0  0  0  0  0  0  0
    7.9750   -4.6053    0.0000 C   0  0  0  0  0  0  0  0  0  0  0  0
    8.6404   -3.4561    0.0000 C   0  0  0  0  0  0  0  0  0  0  0  0
  1  2  2  0  0  0  0 
  1  3  1  0  0  0  0 
  2  4  1  0  0  0  0 
  5  3  2  0  0  0  0 
  3  6  1  0  0  0  0 
  4  7  2  0  0  0  0 
  7  5  1  0  0  0  0 
  6  8  2  0  0  0  0 
  6  9  1  0  0  0  0 
  8 10  1  0  0  0  0 
 11  9  1  0  0  0  0 
 10 12  2  0  0  0  0 
 10 13  1  0  0  0  0 
 13 11  1  0  0  0  0 
 14 11  2  0  0  0  0 
 13 15  2  0  0  0  0 
 16 14  1  0  0  0  0 
 15 17  1  0  0  0  0 
 17 16  2  0  0  0  0 
M  END
> <Name>
Flavone (VAN) (8CI)

> <Source>
DSSTox2DMolFile

> <Tox>
4.410

> <CAS>
525-82-6

$$$$

  CDK

 12 12  0  0  0  0  0  0  0  0999 V2000
    2.4987    2.6007    0.0000 C   0  0  0  0  0  0  0  0  0  0  0  0
    1.4788    2.6007    0.0000 C   0  0  0  0  0  0  0  0  0  0  0  0
    2.9577    1.7338    0.0000 C   0  0  0  0  0  0  0  0  0  0  0  0
    3.0086    3.4676    0.0000 C   0  0  0  0  0  0  0  0  0  0  0  0
    1.0199    1.7338    0.0000 C   0  0  0  0  0  0  0  0  0  0  0  0
    0.9689    3.4676    0.0000 C   0  0  0  0  0  0  0  0  0  0  0  0
    2.4477    0.8669    0.0000 C   0  0  0  0  0  0  0  0  0  0  0  0
    3.9775    1.7338    0.0000 O   0  0  0  0  0  0  0  0  0  0  0  0
    1.4788    0.8669    0.0000 C   0  0  0  0  0  0  0  0  0  0  0  0
    0.0000    1.7338    0.0000 O   0  0  0  0  0  0  0  0  0  0  0  0
    2.9577    0.0000    0.0000 C   0  0  0  0  0  0  0  0  0  0  0  0
    0.9689    0.0000    0.0000 C   0  0  0  0  0  0  0  0  0  0  0  0
  1  2  2  0  0  0  0 
  3  1  1  0  0  0  0 
  1  4  1  0  0  0  0 
  2  5  1  0  0  0  0 
  2  6  1  0  0  0  0 
  7  3  2  0  0  0  0 
  3  8  1  0  0  0  0 
  5  9  2  0  0  0  0 
  5 10  1  0  0  0  0 
  9  7  1  0  0  0  0 
  7 11  1  0  0  0  0 
  9 12  1  0  0  0  0 
M  END
> <Name>
Durohydroquinone

> <Source>
NIST2DMolFile

> <Tox>
4.280

> <CAS>
527-18-4

$$$$

  CDK

 10 10  0  0  0  0  0  0  0  0999 V2000
    5.3182   -2.3028    0.0000 O   0  0  0  0  0  0  0  0  0  0  0  0
    3.9887   -2.3028    0.0000 C   0  0  0  0  0  0  0  0  0  0  0  0
    3.3239   -3.4568    0.0000 C   0  0  0  0  0  0  0  0  0  0  0  0
    3.3239   -1.1487    0.0000 C   0  0  0  0  0  0  0  0  0  0  0  0
    3.9887   -4.6056    0.0000 C   0  0  0  0  0  0  0  0  0  0  0  0
    1.9943   -3.4568    0.0000 C   0  0  0  0  0  0  0  0  0  0  0  0
    1.9943   -1.1487    0.0000 C   0  0  0  0  0  0  0  0  0  0  0  0
    3.9887   -0.0000    0.0000 C   0  0  0  0  0  0  0  0  0  0  0  0
    1.3296   -2.3028    0.0000 C   0  0  0  0  0  0  0  0  0  0  0  0
    0.0000   -2.3028    0.0000 C   0  0  0  0  0  0  0  0  0  0  0  0
  1  2  1  0  0  0  0 
  2  3  2  0  0  0  0 
  2  4  1  0  0  0  0 
  3  5  1  0  0  0  0 
  3  6  1  0  0  0  0 
  7  4  2  0  0  0  0 
  4  8  1  0  0  0  0 
  6  9  2  0  0  0  0 
  9  7  1  0  0  0  0 
  9 10  1  0  0  0  0 
M  END
> <Name>
Phenol, 2,4,6-trimethyl-

> <Source>
DSSTox2DMolFile

> <Tox>
3.420

> <CAS>
527-60-6

$$$$

  CDK

 12 12  0  0  0  0  0  0  0  0999 V2000
    3.3231   -0.0000    0.0000 O   0  0  0  0  0  0  0  0  0  0  0  0
    3.9877   -1.1485    0.0000 N   0  0  0  0  0  0  0  0  0  0  0  0
    5.3170   -1.1485    0.0000 O   0  0  0  0  0  0  0  0  0  0  0  0
    3.3231   -2.3076    0.0000 C   0  0  0  0  0  0  0  0  0  0  0  0
    1.9939   -2.3076    0.0000 C   0  0  0  0  0  0  0  0  0  0  0  0
    3.9877   -3.4507    0.0000 C   0  0  0  0  0  0  0  0  0  0  0  0
    1.3292   -3.4507    0.0000 C   0  0  0  0  0  0  0  0  0  0  0  0
    1.3292   -1.1485    0.0000 N   0  0  0  0  0  0  0  0  0  0  0  0
    3.3231   -4.6098    0.0000 C   0  0  0  0  0  0  0  0  0  0  0  0
    1.9939   -4.6098    0.0000 C   0  0  0  0  0  0  0  0  0  0  0  0
    0.0000   -1.1485    0.0000 O   0  0  0  0  0  0  0  0  0  0  0  0
    1.9939   -0.0000    0.0000 O   0  0  0  0  0  0  0  0  0  0  0  0
  1  2  1  0  0  0  0 
  2  3  2  0  0  0  0 
  2  4  1  0  0  0  0 
  5  4  2  0  0  0  0 
  6  4  1  0  0  0  0 
  7  5  1  0  0  0  0 
  5  8  1  0  0  0  0 
  9  6  2  0  0  0  0 
  7 10  2  0  0  0  0 
  8 11  2  0  0  0  0 
  8 12  1  0  0  0  0 
 10  9  1  0  0  0  0 
M  CHG  1   1  -1
M  CHG  1   2   1
M  CHG  1   8   1
M  CHG  1  12  -1
M  END
> <Name>
Benzene, 1,2-dinitro- (9CI)

> <Source>
DSSTox2DMolFile

> <Tox>
4.250

> <CAS>
528-29-0

$$$$

  CDK

  9  9  0  0  0  0  0  0  0  0999 V2000
    2.6595   -2.3031    0.0000 C   0  0  0  0  0  0  0  0  0  0  0  0
    3.9893   -2.3031    0.0000 C   0  0  0  0  0  0  0  0  0  0  0  0
    1.9946   -3.4574    0.0000 C   0  0  0  0  0  0  0  0  0  0  0  0
    1.9946   -1.1542    0.0000 C   0  0  0  0  0  0  0  0  0  0  0  0
    5.3190   -2.3031    0.0000 N   0  0  0  0  0  0  0  0  0  0  0  0
    0.6649   -3.4574    0.0000 C   0  0  0  0  0  0  0  0  0  0  0  0
    0.6649   -1.1542    0.0000 C   0  0  0  0  0  0  0  0  0  0  0  0
    2.6595   -0.0000    0.0000 C   0  0  0  0  0  0  0  0  0  0  0  0
    0.0000   -2.3031    0.0000 C   0  0  0  0  0  0  0  0  0  0  0  0
  1  2  1  0  0  0  0 
  1  3  2  0  0  0  0 
  1  4  1  0  0  0  0 
  2  5  3  0  0  0  0 
  3  6  1  0  0  0  0 
  7  4  2  0  0  0  0 
  4  8  1  0  0  0  0 
  6  9  2  0  0  0  0 
  9  7  1  0  0  0  0 
M  END
> <Name>
Benzonitrile, 2-methyl-

> <Source>
DSSTox2DMolFile

> <Tox>
2.760

> <CAS>
529-19-1

$$$$

  CDK

 11 11  0  0  0  0  0  0  0  0999 V2000
    1.7612    0.5032    0.0000 C   0  0  0  0  0  0  0  0  0  0  0  0
    1.7612    1.5096    0.0000 C   0  0  0  0  0  0  0  0  0  0  0  0
    0.9057    0.0000    0.0000 C   0  0  0  0  0  0  0  0  0  0  0  0
    0.9057    1.9624    0.0000 C   0  0  0  0  0  0  0  0  0  0  0  0
    0.0000    0.5032    0.0000 C   0  0  0  0  0  0  0  0  0  0  0  0
    0.0000    1.5096    0.0000 C   0  0  0  0  0  0  0  0  0  0  0  0
    0.9057    2.9688    0.0000 C   0  0  0  0  0  0  0  0  0  0  0  0
    1.7612    3.4217    0.0000 N   0  0  0  0  0  0  0  0  0  0  0  0
    0.0503    3.4720    0.0000 O   0  0  0  0  0  0  0  0  0  0  0  0
    2.6166    2.9185    0.0000 C   0  0  0  0  0  0  0  0  0  0  0  0
    3.4720    2.3650    0.0000 S   0  0  0  0  0  0  0  0  0  0  0  0
  2  1  2  0  0  0  0 
  1  3  1  0  0  0  0 
  4  2  1  0  0  0  0 
  3  5  2  0  0  0  0 
  6  4  2  0  0  0  0 
  4  7  1  0  0  0  0 
  5  6  1  0  0  0  0 
  7  8  1  0  0  0  0 
  7  9  2  0  0  0  0 
  8 10  2  0  0  0  0 
 10 11  2  0  0  0  0 
M  END
> <Name>
Benzoyl isothiocyanate

> <Source>
NIST2DMolFile

> <Tox>
3.097

> <CAS>
532-55-8

$$$$

  CDK

  9  8  0  0  0  0  0  0  0  0999 V2000
    3.4484    1.4993    0.0000 C   0  0  0  0  0  0  0  0  0  0  0  0
    2.5988    0.9995    0.0000 C   0  0  0  0  0  0  0  0  0  0  0  0
    4.3480    0.9995    0.0000 C   0  0  0  0  0  0  0  0  0  0  0  0
    3.4484    2.4988    0.0000 Br  0  0  0  0  0  0  0  0  0  0  0  0
    1.7492    1.4993    0.0000 O   0  0  0  0  0  0  0  0  0  0  0  0
    2.5988    0.0000    0.0000 O   0  0  0  0  0  0  0  0  0  0  0  0
    5.1976    1.4993    0.0000 C   0  0  0  0  0  0  0  0  0  0  0  0
    0.8496    0.9995    0.0000 C   0  0  0  0  0  0  0  0  0  0  0  0
    0.0000    1.4993    0.0000 C   0  0  0  0  0  0  0  0  0  0  0  0
  1  2  1  0  0  0  0 
  1  3  1  0  0  0  0 
  1  4  1  0  0  0  0 
  2  5  1  0  0  0  0 
  2  6  2  0  0  0  0 
  3  7  1  0  0  0  0 
  5  8  1  0  0  0  0 
  8  9  1  0  0  0  0 
M  END
> <Name>
Butyric acid, 2-bromo-, ethyl ester (8CI)

> <Source>
NIST2DMolFile

> <Tox>
3.764

> <CAS>
533-68-6

$$$$

  CDK

  9  9  0  0  0  0  0  0  0  0999 V2000
    1.4733    2.5910    0.0000 C   0  0  0  0  0  0  0  0  0  0  0  0
    1.0161    1.7273    0.0000 C   0  0  0  0  0  0  0  0  0  0  0  0
    2.4894    2.5910    0.0000 C   0  0  0  0  0  0  0  0  0  0  0  0
    1.4733    0.8637    0.0000 C   0  0  0  0  0  0  0  0  0  0  0  0
    0.0000    1.7273    0.0000 O   0  0  0  0  0  0  0  0  0  0  0  0
    2.9974    1.7273    0.0000 C   0  0  0  0  0  0  0  0  0  0  0  0
    2.4894    0.8637    0.0000 C   0  0  0  0  0  0  0  0  0  0  0  0
    1.0161    0.0000    0.0000 O   0  0  0  0  0  0  0  0  0  0  0  0
    4.0135    1.7273    0.0000 O   0  0  0  0  0  0  0  0  0  0  0  0
  1  2  2  0  0  0  0 
  3  1  1  0  0  0  0 
  2  4  1  0  0  0  0 
  2  5  1  0  0  0  0 
  6  3  2  0  0  0  0 
  4  7  2  0  0  0  0 
  4  8  1  0  0  0  0 
  7  6  1  0  0  0  0 
  6  9  1  0  0  0  0 
M  END
> <Name>
1,2,4-Trihydroxybenzene

> <Source>
NIST2DMolFile

> <Tox>
3.440

> <CAS>
533-73-3

$$$$

  CDK

  6  5  0  0  0  0  0  0  0  0999 V2000
    0.0000    1.0111    0.0000 O   0  0  0  0  0  0  0  0  0  0  0  0
    0.8594    1.5166    0.0000 C   0  0  0  0  0  0  0  0  0  0  0  0
    1.7694    1.0111    0.0000 C   0  0  0  0  0  0  0  0  0  0  0  0
    2.5782    1.5166    0.0000 C   0  0  0  0  0  0  0  0  0  0  0  0
    1.7694    0.0000    0.0000 N   0  0  0  0  0  0  0  0  0  0  0  0
    3.4376    1.0111    0.0000 O   0  0  0  0  0  0  0  0  0  0  0  0
  1  2  1  0  0  0  0 
  2  3  1  0  0  0  0 
  3  4  1  0  0  0  0 
  3  5  1  0  0  0  0 
  4  6  1  0  0  0  0 
M  END
> <Name>
1,3-Propanediol, 2-amino-

> <Source>
NIST2DMolFile

> <Tox>
1.324

> <CAS>
534-03-2

$$$$

  CDK

  6  5  0  0  0  0  0  0  0  0999 V2000
    2.3042   -0.0000    0.0000 O   0  0  0  0  0  0  0  0  0  0  0  0
    2.3042   -1.3318    0.0000 C   0  0  0  0  0  0  0  0  0  0  0  0
    3.4563   -1.9954    0.0000 C   0  0  0  0  0  0  0  0  0  0  0  0
    1.1521   -1.9954    0.0000 C   0  0  0  0  0  0  0  0  0  0  0  0
    4.6084   -1.3318    0.0000 Cl  0  0  0  0  0  0  0  0  0  0  0  0
    0.0000   -1.3318    0.0000 Cl  0  0  0  0  0  0  0  0  0  0  0  0
  1  2  2  0  0  0  0 
  2  3  1  0  0  0  0 
  2  4  1  0  0  0  0 
  3  5  1  0  0  0  0 
  4  6  1  0  0  0  0 
M  END
> <Name>
2-Propanone, 1,3-dichloro-

> <Source>
DSSTox2DMolFile

> <Tox>
5.046

> <CAS>
534-07-6

$$$$

  CDK

  6  5  0  0  0  0  0  0  0  0999 V2000
    0.0000    0.0000    0.0000 C   0  0  0  0  0  0  0  0  0  0  0  0
   -0.4800   -0.6600   -1.2200 N   0  0  0  0  0  0  0  0  0  0  0  0
   -0.1200   -0.1600   -2.4400 C   0  0  0  0  0  0  0  0  0  0  0  0
    0.8600    1.1800   -2.6400 S   0  0  0  0  0  0  0  0  0  0  0  0
   -0.6400   -0.8800   -3.4600 N   0  0  0  0  0  0  0  0  0  0  0  0
   -0.3600   -0.5000   -4.8400 C   0  0  0  0  0  0  0  0  0  0  0  0
  1  2  1  0  0  0  0 
  2  3  1  0  0  0  0 
  3  4  2  0  0  0  0 
  3  5  1  0  0  0  0 
  5  6  1  0  0  0  0 
M  END
> <Name>
Urea, 1,3-dimethyl-2-thio-

> <Source>
NIH3DMolFile

> <Tox>
1.890

> <CAS>
534-13-4

$$$$

  CDK

 14 14  0  0  0  0  0  0  0  0999 V2000
    3.9918   -5.7573    0.0000 O   0  0  0  0  0  0  0  0  0  0  0  0
    3.3275   -4.6083    0.0000 C   0  0  0  0  0  0  0  0  0  0  0  0
    1.9929   -4.6083    0.0000 C   0  0  0  0  0  0  0  0  0  0  0  0
    3.9918   -3.4532    0.0000 C   0  0  0  0  0  0  0  0  0  0  0  0
    1.3286   -5.7573    0.0000 C   0  0  0  0  0  0  0  0  0  0  0  0
    1.3286   -3.4532    0.0000 C   0  0  0  0  0  0  0  0  0  0  0  0
    3.3275   -2.3041    0.0000 C   0  0  0  0  0  0  0  0  0  0  0  0
    5.3205   -3.4532    0.0000 N   0  0  0  0  0  0  0  0  0  0  0  0
    1.9929   -2.3041    0.0000 C   0  0  0  0  0  0  0  0  0  0  0  0
    5.9848   -2.3041    0.0000 O   0  0  0  0  0  0  0  0  0  0  0  0
    5.9848   -4.6083    0.0000 O   0  0  0  0  0  0  0  0  0  0  0  0
    1.3286   -1.1491    0.0000 N   0  0  0  0  0  0  0  0  0  0  0  0
    1.9929   -0.0000    0.0000 O   0  0  0  0  0  0  0  0  0  0  0  0
    0.0000   -1.1491    0.0000 O   0  0  0  0  0  0  0  0  0  0  0  0
  1  2  1  0  0  0  0 
  2  3  2  0  0  0  0 
  2  4  1  0  0  0  0 
  3  5  1  0  0  0  0 
  3  6  1  0  0  0  0 
  7  4  2  0  0  0  0 
  4  8  1  0  0  0  0 
  6  9  2  0  0  0  0 
  9  7  1  0  0  0  0 
  8 10  1  0  0  0  0 
  8 11  2  0  0  0  0 
  9 12  1  0  0  0  0 
 12 13  1  0  0  0  0 
 12 14  2  0  0  0  0 
M  CHG  1   8   1
M  CHG  1  10  -1
M  CHG  1  12   1
M  CHG  1  13  -1
M  END
> <Name>
Phenol, 2-methyl-4,6-dinitro-

> <Source>
DSSTox2DMolFile

> <Tox>
4.730

> <CAS>
534-52-1

$$$$

  CDK

  8  7  0  0  0  0  0  0  0  0999 V2000
    0.0000    1.4750    0.0000 C   0  0  0  0  0  0  0  0  0  0  0  0
    0.8646    0.9664    0.0000 C   0  0  0  0  0  0  0  0  0  0  0  0
    1.7293    1.4750    0.0000 O   0  0  0  0  0  0  0  0  0  0  0  0
    2.6448    0.9664    0.0000 C   0  0  0  0  0  0  0  0  0  0  0  0
    3.4586    1.4750    0.0000 C   0  0  0  0  0  0  0  0  0  0  0  0
    2.6448    0.0000    0.0000 O   0  0  0  0  0  0  0  0  0  0  0  0
    4.3232    0.9664    0.0000 C   0  0  0  0  0  0  0  0  0  0  0  0
    3.4586    2.4922    0.0000 Br  0  0  0  0  0  0  0  0  0  0  0  0
  1  2  1  0  0  0  0 
  2  3  1  0  0  0  0 
  3  4  1  0  0  0  0 
  4  5  1  0  0  0  0 
  4  6  2  0  0  0  0 
  5  7  1  0  0  0  0 
  5  8  1  0  0  0  0 
M  END
> <Name>
Propionic acid, 2-bromo-, ethyl ester (6CI,7CI,8CI)

> <Source>
NIST2DMolFile

> <Tox>
4.057

> <CAS>
535-11-5

$$$$

  CDK

  8  7  0  0  0  0  0  0  0  0999 V2000
    1.7063    1.5056    0.0000 O   0  0  0  0  0  0  0  0  0  0  0  0
    2.6096    1.0037    0.0000 C   0  0  0  0  0  0  0  0  0  0  0  0
    0.8531    1.0037    0.0000 C   0  0  0  0  0  0  0  0  0  0  0  0
    3.4628    1.5056    0.0000 C   0  0  0  0  0  0  0  0  0  0  0  0
    2.6096    0.0000    0.0000 O   0  0  0  0  0  0  0  0  0  0  0  0
    0.0000    1.5056    0.0000 C   0  0  0  0  0  0  0  0  0  0  0  0
    3.4628    2.5093    0.0000 C   0  0  0  0  0  0  0  0  0  0  0  0
    4.3159    1.0037    0.0000 Cl  0  0  0  0  0  0  0  0  0  0  0  0
  1  2  1  0  0  0  0 
  1  3  1  0  0  0  0 
  2  4  1  0  0  0  0 
  2  5  2  0  0  0  0 
  3  6  1  0  0  0  0 
  4  7  1  0  0  0  0 
  4  8  1  0  0  0  0 
M  END
> <Name>
Propionic acid, 2-chloro-, ethyl ester (8CI)

> <Source>
NIST2DMolFile

> <Tox>
2.569

> <CAS>
535-13-7

$$$$

  CDK

 10 10  0  0  0  0  0  0  0  0999 V2000
    3.9889   -2.3040    0.0000 C   0  0  0  0  0  0  0  0  0  0  0  0
    4.6545   -3.4536    0.0000 O   0  0  0  0  0  0  0  0  0  0  0  0
    4.6545   -1.1497    0.0000 O   0  0  0  0  0  0  0  0  0  0  0  0
    2.6577   -2.3040    0.0000 C   0  0  0  0  0  0  0  0  0  0  0  0
    1.9968   -3.4536    0.0000 C   0  0  0  0  0  0  0  0  0  0  0  0
    1.9968   -1.1497    0.0000 C   0  0  0  0  0  0  0  0  0  0  0  0
    0.6656   -3.4536    0.0000 C   0  0  0  0  0  0  0  0  0  0  0  0
    0.6656   -1.1497    0.0000 C   0  0  0  0  0  0  0  0  0  0  0  0
    0.0000   -2.3040    0.0000 C   0  0  0  0  0  0  0  0  0  0  0  0
    0.0000   -0.0000    0.0000 Cl  0  0  0  0  0  0  0  0  0  0  0  0
  1  2  2  0  0  0  0 
  1  3  1  0  0  0  0 
  1  4  1  0  0  0  0 
  4  5  2  0  0  0  0 
  4  6  1  0  0  0  0 
  5  7  1  0  0  0  0 
  8  6  2  0  0  0  0 
  7  9  2  0  0  0  0 
  9  8  1  0  0  0  0 
  8 10  1  0  0  0  0 
M  END
> <Name>
Benzoic acid, 3-chloro-

> <Source>
DSSTox2DMolFile

> <Tox>
2.870

> <CAS>
535-80-8

$$$$

  CDK

  8  8  0  0  0  0  0  0  0  0999 V2000
    1.0642    2.1577    0.0535 C   0  0  0  0  0  0  0  0  0  0  0  0
    2.2567    2.1572    0.0535 C   0  0  0  0  0  0  0  0  0  0  0  0
    3.6740    2.1588    0.0535 C   0  0  0  0  0  0  0  0  0  0  0  0
    4.3725    3.3708    0.0832 C   0  0  0  0  0  0  0  0  0  0  0  0
    4.3760    0.9493    0.0235 C   0  0  0  0  0  0  0  0  0  0  0  0
    5.7622    3.3672    0.0831 C   0  0  0  0  0  0  0  0  0  0  0  0
    5.7663    0.9574    0.0240 C   0  0  0  0  0  0  0  0  0  0  0  0
    6.4587    2.1640    0.0542 C   0  0  0  0  0  0  0  0  0  0  0  0
  1  2  3  0  0  0  0 
  2  3  1  0  0  0  0 
  3  4  2  0  0  0  0 
  5  3  1  0  0  0  0 
  4  6  1  0  0  0  0 
  7  5  2  0  0  0  0 
  6  8  2  0  0  0  0 
  8  7  1  0  0  0  0 
M  END
> <Name>
ethynylbenzene

> <Source>
NIST3DMolFile

> <Tox>
2.860

> <CAS>
536-74-3

$$$$

  CDK

 15 15  0  0  0  0  0  0  0  0999 V2000
    0.0000    0.0000    0.0000 O   0  0  0  0  0  0  0  0  0  0  0  0
   -0.8600    0.5600   -0.6600 C   0  0  0  0  0  0  0  0  0  0  0  0
   -2.0200   -0.1800   -1.1200 C   0  0  0  0  0  0  0  0  0  0  0  0
   -0.8000    1.8400   -1.0000 O   0  0  0  0  0  0  0  0  0  0  0  0
   -2.2000   -1.4800   -0.8400 C   0  0  0  0  0  0  0  0  0  0  0  0
    0.2000    2.5600   -0.2600 C   0  0  0  0  0  0  0  0  0  0  0  0
   -3.4000   -2.1800   -1.3400 C   0  0  0  0  0  0  0  0  0  0  0  0
    1.5200    2.5000   -1.0000 C   0  0  0  0  0  0  0  0  0  0  0  0
   -4.3800   -1.4600   -2.0600 C   0  0  0  0  0  0  0  0  0  0  0  0
   -3.5800   -3.5400   -1.0800 C   0  0  0  0  0  0  0  0  0  0  0  0
    2.6400    3.2400   -0.2800 C   0  0  0  0  0  0  0  0  0  0  0  0
   -5.5200   -2.1400   -2.5400 C   0  0  0  0  0  0  0  0  0  0  0  0
   -4.7200   -4.2200   -1.5600 C   0  0  0  0  0  0  0  0  0  0  0  0
    3.9800    3.1800   -1.0200 C   0  0  0  0  0  0  0  0  0  0  0  0
   -5.7000   -3.5000   -2.2800 C   0  0  0  0  0  0  0  0  0  0  0  0
  1  2  2  0  0  0  0 
  2  3  1  0  0  0  0 
  2  4  1  0  0  0  0 
  3  5  2  0  0  0  0 
  6  4  1  0  0  0  0 
  5  7  1  0  0  0  0 
  8  6  1  0  0  0  0 
  7  9  2  0  0  0  0 
  7 10  1  0  0  0  0 
 11  8  1  0  0  0  0 
  9 12  1  0  0  0  0 
 13 10  2  0  0  0  0 
 14 11  1  0  0  0  0 
 12 15  2  0  0  0  0 
 15 13  1  0  0  0  0 
M  END
> <Name>
2-Propenoic acid, 3-phenyl-, butyl ester

> <Source>
NIH3DMolFile

> <Tox>
4.530

> <CAS>
538-65-8

$$$$

  CDK

 11 11  0  0  0  0  0  0  0  0999 V2000
    1.1535   -2.6619    0.0000 C   0  0  0  0  0  0  0  0  0  0  0  0
    0.0000   -2.0004    0.0000 C   0  0  0  0  0  0  0  0  0  0  0  0
    2.3070   -2.0004    0.0000 C   0  0  0  0  0  0  0  0  0  0  0  0
    0.0000   -0.6695    0.0000 C   0  0  0  0  0  0  0  0  0  0  0  0
    2.3070   -0.6695    0.0000 C   0  0  0  0  0  0  0  0  0  0  0  0
    3.4605   -2.6619    0.0000 C   0  0  0  0  0  0  0  0  0  0  0  0
    1.1535   -0.0000    0.0000 C   0  0  0  0  0  0  0  0  0  0  0  0
    4.6059   -2.0004    0.0000 C   0  0  0  0  0  0  0  0  0  0  0  0
    5.7594   -2.6619    0.0000 C   0  0  0  0  0  0  0  0  0  0  0  0
    6.9128   -2.0004    0.0000 C   0  0  0  0  0  0  0  0  0  0  0  0
    8.0663   -2.6619    0.0000 C   0  0  0  0  0  0  0  0  0  0  0  0
  1  2  2  0  0  0  0 
  1  3  1  0  0  0  0 
  2  4  1  0  0  0  0 
  5  3  2  0  0  0  0 
  3  6  1  0  0  0  0 
  4  7  2  0  0  0  0 
  7  5  1  0  0  0  0 
  6  8  1  0  0  0  0 
  8  9  1  0  0  0  0 
  9 10  1  0  0  0  0 
 10 11  1  0  0  0  0 
M  END
> <Name>
Benzene, pentyl-

> <Source>
DSSTox2DMolFile

> <Tox>
4.790

> <CAS>
538-68-1

$$$$

  CDK

  8  7  0  0  0  0  0  0  0  0999 V2000
    3.4482    1.4992    0.0000 C   0  0  0  0  0  0  0  0  0  0  0  0
    2.5986    0.9995    0.0000 C   0  0  0  0  0  0  0  0  0  0  0  0
    4.3477    0.9995    0.0000 C   0  0  0  0  0  0  0  0  0  0  0  0
    1.7491    1.4992    0.0000 O   0  0  0  0  0  0  0  0  0  0  0  0
    2.5986    0.0000    0.0000 O   0  0  0  0  0  0  0  0  0  0  0  0
    5.1972    1.4992    0.0000 Br  0  0  0  0  0  0  0  0  0  0  0  0
    0.8495    0.9995    0.0000 C   0  0  0  0  0  0  0  0  0  0  0  0
    0.0000    1.4992    0.0000 C   0  0  0  0  0  0  0  0  0  0  0  0
  1  2  1  0  0  0  0 
  1  3  1  0  0  0  0 
  2  4  1  0  0  0  0 
  2  5  2  0  0  0  0 
  3  6  1  0  0  0  0 
  4  7  1  0  0  0  0 
  7  8  1  0  0  0  0 
M  END
> <Name>
Propionic acid, 3-bromo-, ethyl ester (8CI)

> <Source>
NIST2DMolFile

> <Tox>
3.126

> <CAS>
539-74-2

$$$$

  CDK

  9  8  0  0  0  0  0  0  0  0999 V2000
    3.4855    1.4938    0.0000 C   0  0  0  0  0  0  0  0  0  0  0  0
    2.5892    0.9959    0.0000 C   0  0  0  0  0  0  0  0  0  0  0  0
    4.3320    0.9959    0.0000 C   0  0  0  0  0  0  0  0  0  0  0  0
    1.7427    1.4938    0.0000 O   0  0  0  0  0  0  0  0  0  0  0  0
    2.5892    0.0000    0.0000 O   0  0  0  0  0  0  0  0  0  0  0  0
    5.1784    1.4938    0.0000 C   0  0  0  0  0  0  0  0  0  0  0  0
    0.8963    0.9959    0.0000 C   0  0  0  0  0  0  0  0  0  0  0  0
    6.0747    0.9959    0.0000 C   0  0  0  0  0  0  0  0  0  0  0  0
    0.0000    1.4938    0.0000 C   0  0  0  0  0  0  0  0  0  0  0  0
  1  2  1  0  0  0  0 
  1  3  1  0  0  0  0 
  2  4  1  0  0  0  0 
  2  5  2  0  0  0  0 
  3  6  1  0  0  0  0 
  4  7  1  0  0  0  0 
  6  8  1  0  0  0  0 
  7  9  1  0  0  0  0 
M  END
> <Name>
Valeric acid, ethyl ester (8CI)

> <Source>
NIST2DMolFile

> <Tox>
2.642

> <CAS>
539-82-2

$$$$

  CDK

 10  9  0  0  0  0  0  0  0  0999 V2000
    0.0000    0.9963    0.0000 C   0  0  0  0  0  0  0  0  0  0  0  0
    0.8967    1.4945    0.0000 C   0  0  0  0  0  0  0  0  0  0  0  0
    1.7435    0.9963    0.0000 C   0  0  0  0  0  0  0  0  0  0  0  0
    0.8967    2.4908    0.0000 O   0  0  0  0  0  0  0  0  0  0  0  0
    2.5904    1.4945    0.0000 C   0  0  0  0  0  0  0  0  0  0  0  0
    3.4871    0.9963    0.0000 C   0  0  0  0  0  0  0  0  0  0  0  0
    4.3340    1.4945    0.0000 O   0  0  0  0  0  0  0  0  0  0  0  0
    3.4871    0.0000    0.0000 O   0  0  0  0  0  0  0  0  0  0  0  0
    5.1808    0.9963    0.0000 C   0  0  0  0  0  0  0  0  0  0  0  0
    6.0775    1.4945    0.0000 C   0  0  0  0  0  0  0  0  0  0  0  0
  1  2  1  0  0  0  0 
  2  3  1  0  0  0  0 
  2  4  2  0  0  0  0 
  3  5  1  0  0  0  0 
  5  6  1  0  0  0  0 
  6  7  1  0  0  0  0 
  6  8  2  0  0  0  0 
  7  9  1  0  0  0  0 
  9 10  1  0  0  0  0 
M  END
> <Name>
Pentanoic acid, 4-oxo-, ethyl ester

> <Source>
NIST2DMolFile

> <Tox>
1.600

> <CAS>
539-88-8

$$$$

  CDK

  9  8  0  0  0  0  0  0  0  0999 V2000
    2.5988    1.4993    0.0000 O   0  0  0  0  0  0  0  0  0  0  0  0
    1.7492    0.9995    0.0000 C   0  0  0  0  0  0  0  0  0  0  0  0
    3.4484    0.9995    0.0000 C   0  0  0  0  0  0  0  0  0  0  0  0
    0.8496    1.4993    0.0000 C   0  0  0  0  0  0  0  0  0  0  0  0
    1.7492    0.0000    0.0000 O   0  0  0  0  0  0  0  0  0  0  0  0
    4.3480    1.4993    0.0000 C   0  0  0  0  0  0  0  0  0  0  0  0
    0.0000    0.9995    0.0000 C   0  0  0  0  0  0  0  0  0  0  0  0
    4.3480    2.4988    0.0000 C   0  0  0  0  0  0  0  0  0  0  0  0
    5.1976    0.9995    0.0000 C   0  0  0  0  0  0  0  0  0  0  0  0
  1  2  1  0  0  0  0 
  1  3  1  0  0  0  0 
  2  4  1  0  0  0  0 
  2  5  2  0  0  0  0 
  3  6  1  0  0  0  0 
  4  7  1  0  0  0  0 
  6  8  1  0  0  0  0 
  6  9  1  0  0  0  0 
M  END
> <Name>
Propanoic acid, 2-methylpropyl ester

> <Source>
NIST2DMolFile

> <Tox>
2.307

> <CAS>
540-42-1

$$$$

  CDK

  4  3  0  0  0  0  0  0  0  0999 V2000
    0.0000   -0.0000    0.0000 O   0  0  0  0  0  0  0  0  0  0  0  0
    1.1513   -0.6638    0.0000 C   0  0  0  0  0  0  0  0  0  0  0  0
    2.3061   -0.0000    0.0000 C   0  0  0  0  0  0  0  0  0  0  0  0
    3.4575   -0.6638    0.0000 Br  0  0  0  0  0  0  0  0  0  0  0  0
  1  2  1  0  0  0  0 
  2  3  1  0  0  0  0 
  3  4  1  0  0  0  0 
M  END
> <Name>
2-Bromo-1-ethanol

> <Source>
DSSTox2DMolFile

> <Tox>
2.154

> <CAS>
540-51-2

$$$$

  CDK

  8  7  0  0  0  0  0  0  0  0999 V2000
    1.1522   -0.0000    0.0000 O   0  0  0  0  0  0  0  0  0  0  0  0
    1.1522   -1.3319    0.0000 C   0  0  0  0  0  0  0  0  0  0  0  0
    2.3044   -1.9956    0.0000 O   0  0  0  0  0  0  0  0  0  0  0  0
    0.0000   -1.9956    0.0000 C   0  0  0  0  0  0  0  0  0  0  0  0
    3.4566   -1.3319    0.0000 C   0  0  0  0  0  0  0  0  0  0  0  0
    2.7929   -0.1797    0.0000 C   0  0  0  0  0  0  0  0  0  0  0  0
    4.6088   -0.6683    0.0000 C   0  0  0  0  0  0  0  0  0  0  0  0
    4.1203   -2.4842    0.0000 C   0  0  0  0  0  0  0  0  0  0  0  0
  1  2  2  0  0  0  0 
  2  3  1  0  0  0  0 
  2  4  1  0  0  0  0 
  3  5  1  0  0  0  0 
  5  6  1  0  0  0  0 
  5  7  1  0  0  0  0 
  5  8  1  0  0  0  0 
M  END
> <Name>
Acetic acid, 1,1-dimethylethyl ester

> <Source>
DSSTox2DMolFile

> <Tox>
1.510

> <CAS>
540-88-5

$$$$

  CDK

  7  6  0  0  0  0  0  0  0  0999 V2000
   -0.0277   -0.8592    0.1091 C   0  0  0  0  0  0  0  0  0  0  0  0
   -1.2187    0.0046   -0.3107 C   0  0  0  0  0  0  0  0  0  0  0  0
    1.2469   -0.0729   -0.0583 C   0  0  0  0  0  0  0  0  0  0  0  0
   -2.5128   -0.7938   -0.1407 C   0  0  0  0  0  0  0  0  0  0  0  0
   -1.2738    1.2577    0.5654 C   0  0  0  0  0  0  0  0  0  0  0  0
    2.4316   -0.6356    0.2523 N   0  0  0  0  0  0  0  0  0  0  0  0
    1.2067    1.0663   -0.4726 O   0  0  0  0  0  0  0  0  0  0  0  0
  1  2  1  0  0  0  0 
  1  3  1  0  0  0  0 
  2  4  1  0  0  0  0 
  2  5  1  0  0  0  0 
  3  6  1  0  0  0  0 
  3  7  2  0  0  0  0 
M  END
> <Name>
3-methylbutanamide

> <Source>
NIH3DMolFile

> <Tox>
1.340

> <CAS>
541-46-8

$$$$

  CDK

  8  8  0  0  0  0  0  0  0  0999 V2000
    4.6080   -2.6588    0.0000 Cl  0  0  0  0  0  0  0  0  0  0  0  0
    3.4560   -1.9953    0.0000 C   0  0  0  0  0  0  0  0  0  0  0  0
    2.3040   -2.6588    0.0000 C   0  0  0  0  0  0  0  0  0  0  0  0
    3.4560   -0.6635    0.0000 C   0  0  0  0  0  0  0  0  0  0  0  0
    1.1520   -1.9953    0.0000 C   0  0  0  0  0  0  0  0  0  0  0  0
    2.3040   -0.0000    0.0000 C   0  0  0  0  0  0  0  0  0  0  0  0
    0.0000   -2.6588    0.0000 Cl  0  0  0  0  0  0  0  0  0  0  0  0
    1.1520   -0.6635    0.0000 C   0  0  0  0  0  0  0  0  0  0  0  0
  1  2  1  0  0  0  0 
  2  3  2  0  0  0  0 
  2  4  1  0  0  0  0 
  3  5  1  0  0  0  0 
  6  4  2  0  0  0  0 
  5  7  1  0  0  0  0 
  5  8  2  0  0  0  0 
  8  6  1  0  0  0  0 
M  END
> <Name>
Benzene, 1,3-dichloro-

> <Source>
DSSTox2DMolFile

> <Tox>
3.560

> <CAS>
541-73-1

$$$$

  CDK

  7  6  0  0  0  0  0  0  0  0999 V2000
    1.7000    1.5000    0.0000 C   0  0  0  0  0  0  0  0  0  0  0  0
    0.8500    1.0000    0.0000 C   0  0  0  0  0  0  0  0  0  0  0  0
    2.6000    1.0000    0.0000 C   0  0  0  0  0  0  0  0  0  0  0  0
    0.8500    0.0000    0.0000 C   0  0  0  0  0  0  0  0  0  0  0  0
    0.0000    1.5000    0.0000 C   0  0  0  0  0  0  0  0  0  0  0  0
    3.4000    1.5000    0.0000 C   0  0  0  0  0  0  0  0  0  0  0  0
    4.3000    2.0500    0.0000 N   0  0  0  0  0  0  0  0  0  0  0  0
  1  2  1  0  0  0  0 
  1  3  1  0  0  0  0 
  2  4  1  0  0  0  0 
  2  5  1  0  0  0  0 
  3  6  1  0  0  0  0 
  6  7  3  0  0  0  0 
M  END
> <Name>
Pentanenitrile, 4-methyl-

> <Source>
NIST2DMolFile

> <Tox>
2.214

> <CAS>
542-54-1

$$$$

  CDK

  7  6  0  0  0  0  0  0  0  0999 V2000
    0.0000    1.0183    0.0000 C   0  0  0  0  0  0  0  0  0  0  0  0
    0.9165    1.4766    0.0000 C   0  0  0  0  0  0  0  0  0  0  0  0
    1.7311    1.0183    0.0000 C   0  0  0  0  0  0  0  0  0  0  0  0
    0.9165    2.4949    0.0000 C   0  0  0  0  0  0  0  0  0  0  0  0
    2.5967    1.4766    0.0000 O   0  0  0  0  0  0  0  0  0  0  0  0
    3.5132    1.0183    0.0000 C   0  0  0  0  0  0  0  0  0  0  0  0
    3.5132    0.0000    0.0000 O   0  0  0  0  0  0  0  0  0  0  0  0
  1  2  1  0  0  0  0 
  2  3  1  0  0  0  0 
  2  4  1  0  0  0  0 
  3  5  1  0  0  0  0 
  5  6  1  0  0  0  0 
  6  7  2  0  0  0  0 
M  END
> <Name>
Formic acid, 2-methylpropyl ester

> <Source>
NIST2DMolFile

> <Tox>
1.692

> <CAS>
542-55-2

$$$$

  CDK

  5  4  0  0  0  0  0  0  0  0999 V2000
    0.0000    0.0000    0.0000 C   0  0  0  0  0  0  0  0  0  0  0  0
    0.8737    0.4625    0.0000 C   0  0  0  0  0  0  0  0  0  0  0  0
    1.7474    0.0000    0.0000 N   0  0  0  0  0  0  0  0  0  0  0  0
    2.6725    0.4625    0.0000 C   0  0  0  0  0  0  0  0  0  0  0  0
    3.5462    0.0000    0.0000 S   0  0  0  0  0  0  0  0  0  0  0  0
  1  2  1  0  0  0  0 
  2  3  1  0  0  0  0 
  3  4  2  0  0  0  0 
  4  5  2  0  0  0  0 
M  END
> <Name>
Isothiocyanic acid, ethyl ester

> <Source>
NIST2DMolFile

> <Tox>
4.627

> <CAS>
542-85-8

$$$$

  CDK

  8  7  0  0  0  0  0  0  0  0999 V2000
    3.3043    0.9653   -0.0607 C   0  0  0  0  0  0  0  0  0  0  0  0
    2.1663   -0.0238   -0.3139 C   0  0  0  0  0  0  0  0  0  0  0  0
    0.8411    0.5286    0.2289 C   0  0  0  0  0  0  0  0  0  0  0  0
    2.4009   -1.2611    0.3365 O   0  0  0  0  0  0  0  0  0  0  0  0
   -0.3605   -0.2252   -0.3174 C   0  0  0  0  0  0  0  0  0  0  0  0
   -1.6607    0.3552    0.2158 C   0  0  0  0  0  0  0  0  0  0  0  0
   -2.8664   -0.3907   -0.3332 C   0  0  0  0  0  0  0  0  0  0  0  0
   -4.1610    0.1823    0.1976 C   0  0  0  0  0  0  0  0  0  0  0  0
  1  2  1  0  0  0  0 
  2  3  1  0  0  0  0 
  2  4  1  0  0  0  0 
  3  5  1  0  0  0  0 
  5  6  1  0  0  0  0 
  6  7  1  0  0  0  0 
  7  8  1  0  0  0  0 
M  END
> <Name>
2-Heptanol

> <Source>
DougDB3DMolFile

> <Tox>
2.530

> <CAS>
543-49-7

$$$$

  CDK

  7  6  0  0  0  0  0  0  0  0999 V2000
    1.7489    0.4997    0.0000 C   0  0  0  0  0  0  0  0  0  0  0  0
    2.5984    0.0000    0.0000 C   0  0  0  0  0  0  0  0  0  0  0  0
    0.8495    0.0000    0.0000 C   0  0  0  0  0  0  0  0  0  0  0  0
    3.4478    0.4997    0.0000 C   0  0  0  0  0  0  0  0  0  0  0  0
    0.0000    0.4997    0.0000 C   0  0  0  0  0  0  0  0  0  0  0  0
    4.3473    0.0000    0.0000 C   0  0  0  0  0  0  0  0  0  0  0  0
    5.1968    0.4997    0.0000 Cl  0  0  0  0  0  0  0  0  0  0  0  0
  1  2  1  0  0  0  0 
  1  3  1  0  0  0  0 
  2  4  1  0  0  0  0 
  3  5  1  0  0  0  0 
  4  6  1  0  0  0  0 
  6  7  1  0  0  0  0 
M  END
> <Name>
1-chlorohexane

> <Source>
NIST2DMolFile

> <Tox>
3.780

> <CAS>
544-10-5

$$$$

  CDK

  7  6  0  0  0  0  0  0  0  0999 V2000
    3.0288   -0.8117   -0.2204 N   0  0  0  0  0  0  0  0  0  0  0  0
    2.0359   -0.3961    0.2130 C   0  0  0  0  0  0  0  0  0  0  0  0
    0.7789    0.1318    0.7597 C   0  0  0  0  0  0  0  0  0  0  0  0
    0.3838   -0.6039    2.0399 C   0  0  0  0  0  0  0  0  0  0  0  0
   -0.9461   -0.0896    2.5903 C   0  0  0  0  0  0  0  0  0  0  0  0
   -1.3409   -0.8298    3.7961 C   0  0  0  0  0  0  0  0  0  0  0  0
   -1.6541   -1.4133    4.7489 N   0  0  0  0  0  0  0  0  0  0  0  0
  1  2  3  0  0  0  0 
  3  2  1  0  0  0  0 
  4  3  1  0  0  0  0 
  4  5  1  0  0  0  0 
  5  6  1  0  0  0  0 
  7  6  3  0  0  0  0 
M  END
> <Name>
1,3-Trimethylenedinitrile

> <Source>
Chemidplus3DMolFile

> <Tox>
1.363

> <CAS>
544-13-8

$$$$

  CDK

  6  5  0  0  0  0  0  0  0  0999 V2000
    0.0000   -2.6608    0.0000 Cl  0  0  0  0  0  0  0  0  0  0  0  0
    1.3284   -2.6608    0.0000 C   0  0  0  0  0  0  0  0  0  0  0  0
    2.6608   -2.6608    0.0000 Cl  0  0  0  0  0  0  0  0  0  0  0  0
    1.3284   -3.9892    0.0000 Cl  0  0  0  0  0  0  0  0  0  0  0  0
    1.3284   -1.3284    0.0000 C   0  0  0  0  0  0  0  0  0  0  0  0
    1.3284   -0.0000    0.0000 N   0  0  0  0  0  0  0  0  0  0  0  0
  1  2  1  0  0  0  0 
  2  3  1  0  0  0  0 
  2  4  1  0  0  0  0 
  2  5  1  0  0  0  0 
  5  6  3  0  0  0  0 
M  END
> <Name>
Acetonitrile, trichloro-

> <Source>
DSSTox2DMolFile

> <Tox>
4.883

> <CAS>
545-06-2

$$$$

  CDK

 13 14  0  0  0  0  0  0  0  0999 V2000
    2.6638   -3.4542    0.0000 N   0  0  0  0  0  0  0  0  0  0  0  0
    1.3319   -3.4542    0.0000 C   0  0  0  0  0  0  0  0  0  0  0  0
    3.3298   -2.3052    0.0000 C   0  0  0  0  0  0  0  0  0  0  0  0
    0.0000   -3.4542    0.0000 S   0  0  0  0  0  0  0  0  0  0  0  0
    2.6638   -1.1490    0.0000 C   0  0  0  0  0  0  0  0  0  0  0  0
    4.6544   -2.3052    0.0000 C   0  0  0  0  0  0  0  0  0  0  0  0
    3.3298   -0.0000    0.0000 C   0  0  0  0  0  0  0  0  0  0  0  0
    5.3204   -1.1490    0.0000 C   0  0  0  0  0  0  0  0  0  0  0  0
    5.3204   -3.4542    0.0000 C   0  0  0  0  0  0  0  0  0  0  0  0
    4.6544   -0.0000    0.0000 C   0  0  0  0  0  0  0  0  0  0  0  0
    6.6523   -1.1490    0.0000 C   0  0  0  0  0  0  0  0  0  0  0  0
    6.6523   -3.4542    0.0000 C   0  0  0  0  0  0  0  0  0  0  0  0
    7.3182   -2.3052    0.0000 C   0  0  0  0  0  0  0  0  0  0  0  0
  1  2  2  0  0  0  0 
  1  3  1  0  0  0  0 
  2  4  2  0  0  0  0 
  3  5  2  0  0  0  0 
  3  6  1  0  0  0  0 
  5  7  1  0  0  0  0 
  8  6  1  0  0  0  0 
  9  6  2  0  0  0  0 
  7 10  2  0  0  0  0 
 10  8  1  0  0  0  0 
  8 11  2  0  0  0  0 
 12  9  1  0  0  0  0 
 11 13  1  0  0  0  0 
 13 12  2  0  0  0  0 
M  END
> <Name>
Isothiocyanic acid, 1-naphthyl ester

> <Source>
DSSTox2DMolFile

> <Tox>
5.137

> <CAS>
551-06-4

$$$$

  CDK

 12 12  0  0  0  0  0  0  0  0999 V2000
    2.6606   -1.1574    0.0000 C   0  0  0  0  0  0  0  0  0  0  0  0
    1.9955   -0.0000    0.0000 O   0  0  0  0  0  0  0  0  0  0  0  0
    3.9909   -1.1574    0.0000 C   0  0  0  0  0  0  0  0  0  0  0  0
    1.9955   -2.3081    0.0000 C   0  0  0  0  0  0  0  0  0  0  0  0
    4.6561   -2.3081    0.0000 C   0  0  0  0  0  0  0  0  0  0  0  0
    2.6606   -3.4588    0.0000 C   0  0  0  0  0  0  0  0  0  0  0  0
    0.6652   -2.3081    0.0000 C   0  0  0  0  0  0  0  0  0  0  0  0
    5.9864   -2.3081    0.0000 O   0  0  0  0  0  0  0  0  0  0  0  0
    3.9909   -3.4588    0.0000 C   0  0  0  0  0  0  0  0  0  0  0  0
    0.0000   -3.4588    0.0000 O   0  0  0  0  0  0  0  0  0  0  0  0
    0.0000   -1.1574    0.0000 C   0  0  0  0  0  0  0  0  0  0  0  0
    6.6515   -3.4588    0.0000 C   0  0  0  0  0  0  0  0  0  0  0  0
  1  2  1  0  0  0  0 
  1  3  2  0  0  0  0 
  1  4  1  0  0  0  0 
  3  5  1  0  0  0  0 
  6  4  2  0  0  0  0 
  4  7  1  0  0  0  0 
  5  8  1  0  0  0  0 
  5  9  2  0  0  0  0 
  9  6  1  0  0  0  0 
  7 10  2  0  0  0  0 
  7 11  1  0  0  0  0 
  8 12  1  0  0  0  0 
M  END
> <Name>
Ethanone, 1-(2-hydroxy-4-methoxyphenyl)- (9CI)

> <Source>
DSSTox2DMolFile

> <Tox>
3.550

> <CAS>
552-41-0

$$$$

  CDK

 11 11  0  0  0  0  0  0  0  0999 V2000
    1.9971   -2.3043    0.0000 C   0  0  0  0  0  0  0  0  0  0  0  0
    2.6581   -1.1545    0.0000 C   0  0  0  0  0  0  0  0  0  0  0  0
    2.6581   -3.4588    0.0000 C   0  0  0  0  0  0  0  0  0  0  0  0
    0.6657   -2.3043    0.0000 C   0  0  0  0  0  0  0  0  0  0  0  0
    1.9971   -0.0000    0.0000 O   0  0  0  0  0  0  0  0  0  0  0  0
    3.9895   -3.4588    0.0000 N   0  0  0  0  0  0  0  0  0  0  0  0
    1.9971   -4.6086    0.0000 C   0  0  0  0  0  0  0  0  0  0  0  0
    0.0000   -3.4588    0.0000 C   0  0  0  0  0  0  0  0  0  0  0  0
    4.6552   -2.3043    0.0000 O   0  0  0  0  0  0  0  0  0  0  0  0
    4.6552   -4.6086    0.0000 O   0  0  0  0  0  0  0  0  0  0  0  0
    0.6657   -4.6086    0.0000 C   0  0  0  0  0  0  0  0  0  0  0  0
  1  2  1  0  0  0  0 
  1  3  2  0  0  0  0 
  1  4  1  0  0  0  0 
  2  5  2  0  0  0  0 
  3  6  1  0  0  0  0 
  3  7  1  0  0  0  0 
  8  4  2  0  0  0  0 
  6  9  1  0  0  0  0 
  6 10  2  0  0  0  0 
  7 11  2  0  0  0  0 
 11  8  1  0  0  0  0 
M  CHG  1   6   1
M  CHG  1   9  -1
M  END
> <Name>
Benzaldehyde, 2-nitro-

> <Source>
DSSTox2DMolFile

> <Tox>
3.170

> <CAS>
552-89-6

$$$$

  CDK

  9  9  0  0  0  0  0  0  0  0999 V2000
    4.6082   -2.6589    0.0000 Cl  0  0  0  0  0  0  0  0  0  0  0  0
    3.4561   -1.9953    0.0000 C   0  0  0  0  0  0  0  0  0  0  0  0
    2.3041   -2.6589    0.0000 C   0  0  0  0  0  0  0  0  0  0  0  0
    3.4561   -0.6636    0.0000 C   0  0  0  0  0  0  0  0  0  0  0  0
    1.1520   -1.9953    0.0000 C   0  0  0  0  0  0  0  0  0  0  0  0
    2.3041   -0.0000    0.0000 C   0  0  0  0  0  0  0  0  0  0  0  0
    4.6082   -0.0000    0.0000 N   0  0  0  0  0  0  0  0  0  0  0  0
    0.0000   -2.6589    0.0000 Cl  0  0  0  0  0  0  0  0  0  0  0  0
    1.1520   -0.6636    0.0000 C   0  0  0  0  0  0  0  0  0  0  0  0
  1  2  1  0  0  0  0 
  2  3  2  0  0  0  0 
  2  4  1  0  0  0  0 
  3  5  1  0  0  0  0 
  6  4  2  0  0  0  0 
  4  7  1  0  0  0  0 
  5  8  1  0  0  0  0 
  5  9  2  0  0  0  0 
  9  6  1  0  0  0  0 
M  END
> <Name>
Benzenamine, 2,4-dichloro-

> <Source>
DSSTox2DMolFile

> <Tox>
3.560

> <CAS>
554-00-7

$$$$

  CDK

  6  5  0  0  0  0  0  0  0  0999 V2000
    2.3105   -1.3355    0.0000 C   0  0  0  0  0  0  0  0  0  0  0  0
    3.4658   -1.9917    0.0000 C   0  0  0  0  0  0  0  0  0  0  0  0
    1.1553   -1.9917    0.0000 O   0  0  0  0  0  0  0  0  0  0  0  0
    2.3105   -0.0000    0.0000 O   0  0  0  0  0  0  0  0  0  0  0  0
    4.6211   -1.3355    0.0000 C   0  0  0  0  0  0  0  0  0  0  0  0
    0.0000   -1.3355    0.0000 C   0  0  0  0  0  0  0  0  0  0  0  0
  1  2  1  0  0  0  0 
  1  3  1  0  0  0  0 
  1  4  2  0  0  0  0 
  2  5  1  0  0  0  0 
  3  6  1  0  0  0  0 
M  END
> <Name>
Propanoic acid, methyl ester

> <Source>
DSSTox2DMolFile

> <Tox>
1.391

> <CAS>
554-12-1

$$$$

  CDK

 10 10  0  0  0  0  0  0  0  0999 V2000
    4.6545   -0.0000    0.0000 O   0  0  0  0  0  0  0  0  0  0  0  0
    3.9889   -1.1497    0.0000 C   0  0  0  0  0  0  0  0  0  0  0  0
    4.6545   -2.3040    0.0000 C   0  0  0  0  0  0  0  0  0  0  0  0
    2.6577   -1.1497    0.0000 C   0  0  0  0  0  0  0  0  0  0  0  0
    3.9889   -3.4536    0.0000 C   0  0  0  0  0  0  0  0  0  0  0  0
    1.9968   -2.3040    0.0000 C   0  0  0  0  0  0  0  0  0  0  0  0
    2.6577   -3.4536    0.0000 C   0  0  0  0  0  0  0  0  0  0  0  0
    0.6656   -2.3040    0.0000 N   0  0  0  0  0  0  0  0  0  0  0  0
    0.0000   -3.4536    0.0000 O   0  0  0  0  0  0  0  0  0  0  0  0
    0.0000   -1.1497    0.0000 O   0  0  0  0  0  0  0  0  0  0  0  0
  1  2  1  0  0  0  0 
  2  3  2  0  0  0  0 
  2  4  1  0  0  0  0 
  3  5  1  0  0  0  0 
  6  4  2  0  0  0  0 
  5  7  2  0  0  0  0 
  7  6  1  0  0  0  0 
  6  8  1  0  0  0  0 
  8  9  1  0  0  0  0 
  8 10  2  0  0  0  0 
M  CHG  1   8   1
M  CHG  1   9  -1
M  END
> <Name>
Phenol, 3-nitro-

> <Source>
DSSTox2DMolFile

> <Tox>
3.510

> <CAS>
554-84-7

$$$$

  CDK

 11 11  0  0  0  0  0  0  0  0999 V2000
    6.6538   -0.0000    0.0000 O   0  0  0  0  0  0  0  0  0  0  0  0
    5.9884   -1.1511    0.0000 C   0  0  0  0  0  0  0  0  0  0  0  0
    4.6576   -1.1511    0.0000 C   0  0  0  0  0  0  0  0  0  0  0  0
    3.9923   -2.3022    0.0000 C   0  0  0  0  0  0  0  0  0  0  0  0
    3.9923   -0.0000    0.0000 C   0  0  0  0  0  0  0  0  0  0  0  0
    2.6615   -2.3022    0.0000 C   0  0  0  0  0  0  0  0  0  0  0  0
    2.6615   -0.0000    0.0000 C   0  0  0  0  0  0  0  0  0  0  0  0
    1.9961   -1.1511    0.0000 C   0  0  0  0  0  0  0  0  0  0  0  0
    0.6654   -1.1511    0.0000 N   0  0  0  0  0  0  0  0  0  0  0  0
    0.0000   -2.3022    0.0000 O   0  0  0  0  0  0  0  0  0  0  0  0
    0.0000   -0.0000    0.0000 O   0  0  0  0  0  0  0  0  0  0  0  0
  1  2  2  0  0  0  0 
  2  3  1  0  0  0  0 
  3  4  2  0  0  0  0 
  3  5  1  0  0  0  0 
  4  6  1  0  0  0  0 
  7  5  2  0  0  0  0 
  6  8  2  0  0  0  0 
  8  7  1  0  0  0  0 
  8  9  1  0  0  0  0 
  9 10  2  0  0  0  0 
  9 11  1  0  0  0  0 
M  CHG  1   9   1
M  CHG  1  11  -1
M  END
> <Name>
Benzaldehyde, 4-nitro-

> <Source>
DSSTox2DMolFile

> <Tox>
3.200

> <CAS>
555-16-8

$$$$

  CDK

 12 12  0  0  0  0  0  0  0  0999 V2000
    3.4530    1.0975    0.3845 O   0  0  0  0  0  0  0  0  0  0  0  0
    2.8575   -0.0001    0.2613 N   0  0  0  0  0  0  0  0  0  0  0  0
    3.4531   -1.0977    0.3840 O   0  0  0  0  0  0  0  0  0  0  0  0
    1.4669   -0.0001   -0.0257 C   0  0  0  0  0  0  0  0  0  0  0  0
    0.7836    1.2080   -0.1660 C   0  0  0  0  0  0  0  0  0  0  0  0
    0.7836   -1.2081   -0.1663 C   0  0  0  0  0  0  0  0  0  0  0  0
   -0.5826    1.2082   -0.4468 C   0  0  0  0  0  0  0  0  0  0  0  0
   -0.5827   -1.2079   -0.4472 C   0  0  0  0  0  0  0  0  0  0  0  0
   -1.2658    0.0003   -0.5874 C   0  0  0  0  0  0  0  0  0  0  0  0
   -2.7266    0.0002   -0.8870 C   0  0  0  0  0  0  0  0  0  0  0  0
   -3.5105    0.0003    0.3576 C   0  0  0  0  0  0  0  0  0  0  0  0
   -4.1295   -0.0007    1.3391 N   0  0  0  0  0  0  0  0  0  0  0  0
  1  2  1  0  0  0  0 
  3  2  2  0  0  0  0 
  2  4  1  0  0  0  0 
  4  5  2  0  0  0  0 
  4  6  1  0  0  0  0 
  7  5  1  0  0  0  0 
  8  6  2  0  0  0  0 
  9  7  2  0  0  0  0 
  9  8  1  0  0  0  0 
  9 10  1  0  0  0  0 
 10 11  1  0  0  0  0 
 12 11  3  0  0  0  0 
M  CHG  1   1  -1
M  CHG  1   2   1
M  END
> <Name>
2-(4-nitrophenyl)acetonitrile

> <Source>
Chemidplus3DMolFile

> <Tox>
3.130

> <CAS>
555-21-5

$$$$

  CDK

  4  3  0  0  0  0  0  0  0  0999 V2000
   -3.2423    0.2981   -0.2752 C   0  0  0  0  0  0  0  0  0  0  0  0
   -2.1044    0.1489    0.3973 C   0  0  0  0  0  0  0  0  0  0  0  0
   -1.1076   -0.8807    0.0722 C   0  0  0  0  0  0  0  0  0  0  0  0
    0.7035    0.0530   -0.0190 I   0  0  0  0  0  0  0  0  0  0  0  0
  1  2  2  0  0  0  0 
  2  3  1  0  0  0  0 
  3  4  1  0  0  0  0 
M  END
> <Name>
1-Propene, 3-iodo-

> <Source>
DougDB3DMolFile

> <Tox>
3.796

> <CAS>
556-56-9

$$$$

  CDK

  6  5  0  0  0  0  0  0  0  0999 V2000
    1.1553   -1.3355    0.0000 C   0  0  0  0  0  0  0  0  0  0  0  0
    2.3105   -1.9917    0.0000 C   0  0  0  0  0  0  0  0  0  0  0  0
    0.0000   -1.9917    0.0000 O   0  0  0  0  0  0  0  0  0  0  0  0
    3.4658   -1.3355    0.0000 C   0  0  0  0  0  0  0  0  0  0  0  0
    4.6211   -1.9917    0.0000 C   0  0  0  0  0  0  0  0  0  0  0  0
    3.4658   -0.0000    0.0000 C   0  0  0  0  0  0  0  0  0  0  0  0
  1  2  1  0  0  0  0 
  1  3  1  0  0  0  0 
  2  4  2  0  0  0  0 
  4  5  1  0  0  0  0 
  4  6  1  0  0  0  0 
M  END
> <Name>
2-Buten-1-ol, 3-methyl-

> <Source>
DSSTox2DMolFile

> <Tox>
1.761

> <CAS>
556-82-1

$$$$

  CDK

 10  9  0  0  0  0  0  0  0  0999 V2000
    1.4948    2.5910    0.0000 C   0  0  0  0  0  0  0  0  0  0  0  0
    0.9965    1.6941    0.0000 C   0  0  0  0  0  0  0  0  0  0  0  0
    2.4913    2.5910    0.0000 C   0  0  0  0  0  0  0  0  0  0  0  0
    0.0000    1.6941    0.0000 C   0  0  0  0  0  0  0  0  0  0  0  0
    2.9896    1.6941    0.0000 C   0  0  0  0  0  0  0  0  0  0  0  0
    3.9861    1.6941    0.0000 C   0  0  0  0  0  0  0  0  0  0  0  0
    4.4843    0.8470    0.0000 C   0  0  0  0  0  0  0  0  0  0  0  0
    5.4809    0.8470    0.0000 C   0  0  0  0  0  0  0  0  0  0  0  0
    5.9791    0.0000    0.0000 C   0  0  0  0  0  0  0  0  0  0  0  0
    6.9756    0.0000    0.0000 O   0  0  0  0  0  0  0  0  0  0  0  0
  1  2  1  0  0  0  0 
  1  3  2  0  0  0  0 
  2  4  1  0  0  0  0 
  3  5  1  0  0  0  0 
  5  6  1  0  0  0  0 
  6  7  1  0  0  0  0 
  7  8  2  0  0  0  0 
  8  9  1  0  0  0  0 
  9 10  2  0  0  0  0 
M  END
> <Name>
(2E,6Z)-Nona-2,6-dien-1-al

> <Source>
NIST2DMolFile

> <Tox>
4.340

> <CAS>
557-48-2

$$$$

  CDK

  5  4  0  0  0  0  0  0  0  0999 V2000
   -1.2593   -0.8750    0.0000 C   0  0  0  0  0  0  0  0  0  0  0  0
   -0.0469   -0.1750    0.0000 N   0  0  0  0  0  0  0  0  0  0  0  0
   -2.4718   -0.1750    0.0000 Br  0  0  0  0  0  0  0  0  0  0  0  0
   -0.0469    1.2250    0.0000 O   0  0  0  0  0  0  0  0  0  0  0  0
    1.1655   -0.8750    0.0000 O   0  0  0  0  0  0  0  0  0  0  0  0
  1  2  1  0  0  0  0 
  1  3  1  0  0  0  0 
  4  2  2  0  0  0  0 
  5  2  1  0  0  0  0 
M  CHG  1   2   1
M  CHG  1   5  -1
M  END
> <Name>
bromo(nitro)methane

> <Source>
IndexNet2DMolFile

> <Tox>
4.638

> <CAS>
563-70-2

$$$$

  CDK

  6  5  0  0  0  0  0  0  0  0999 V2000
    3.3250   -1.1509    0.0000 C   0  0  0  0  0  0  0  0  0  0  0  0
    1.9943   -1.1509    0.0000 C   0  0  0  0  0  0  0  0  0  0  0  0
    1.3307   -0.0000    0.0000 O   0  0  0  0  0  0  0  0  0  0  0  0
    1.3307   -2.3053    0.0000 C   0  0  0  0  0  0  0  0  0  0  0  0
    1.9943   -3.4563    0.0000 C   0  0  0  0  0  0  0  0  0  0  0  0
    0.0000   -2.3053    0.0000 C   0  0  0  0  0  0  0  0  0  0  0  0
  1  2  1  0  0  0  0 
  2  3  2  0  0  0  0 
  2  4  1  0  0  0  0 
  4  5  1  0  0  0  0 
  4  6  1  0  0  0  0 
M  END
> <Name>
2-Butanone, 3-methyl-

> <Source>
DSSTox2DMolFile

> <Tox>
1.831

> <CAS>
563-80-4

$$$$

  CDK

  7  6  0  0  0  0  0  0  0  0999 V2000
    2.5861    1.4920    0.0000 C   0  0  0  0  0  0  0  0  0  0  0  0
    1.7406    0.9947    0.0000 C   0  0  0  0  0  0  0  0  0  0  0  0
    2.5861    2.4866    0.0000 C   0  0  0  0  0  0  0  0  0  0  0  0
    3.4813    0.9947    0.0000 C   0  0  0  0  0  0  0  0  0  0  0  0
    0.8455    1.5417    0.0000 C   0  0  0  0  0  0  0  0  0  0  0  0
    1.7406    0.0000    0.0000 O   0  0  0  0  0  0  0  0  0  0  0  0
    0.0000    1.9893    0.0000 C   0  0  0  0  0  0  0  0  0  0  0  0
  1  2  1  0  0  0  0 
  1  3  1  0  0  0  0 
  1  4  1  0  0  0  0 
  2  5  1  0  0  0  0 
  2  6  1  0  0  0  0 
  5  7  3  0  0  0  0 
M  END
> <Name>
1-Pentyn-3-ol, 4-methyl-

> <Source>
NIST2DMolFile

> <Tox>
2.973

> <CAS>
565-68-4

$$$$

  CDK

  8  7  0  0  0  0  0  0  0  0999 V2000
    1.6985    0.0886   -0.2160 C   0  0  0  0  0  0  0  0  0  0  0  0
    0.3440   -0.4020   -0.6393 C   0  0  0  0  0  0  0  0  0  0  0  0
    2.7786   -0.4427   -0.4067 O   0  0  0  0  0  0  0  0  0  0  0  0
    1.7149    1.2730    0.4310 O   0  0  0  0  0  0  0  0  0  0  0  0
   -0.0388   -1.7451   -0.0510 C   0  0  0  0  0  0  0  0  0  0  0  0
   -0.9555    0.9059   -0.0139 Br  0  0  0  0  0  0  0  0  0  0  0  0
   -1.3546   -2.2211   -0.6468 C   0  0  0  0  0  0  0  0  0  0  0  0
   -0.1208   -1.7158    1.4663 C   0  0  0  0  0  0  0  0  0  0  0  0
  1  2  1  0  0  0  0 
  1  3  2  0  0  0  0 
  1  4  1  0  0  0  0 
  2  5  1  0  0  0  0 
  2  6  1  0  0  0  0 
  5  7  1  0  0  0  0 
  5  8  1  0  0  0  0 
M  END
> <Name>
Butanoic acid, 2-bromo-3-methyl-

> <Source>
DougDB3DMolFile

> <Tox>
2.451

> <CAS>
565-74-2

$$$$

  CDK

 12 13  0  0  0  0  0  0  0  0999 V2000
    2.3099   -2.0065    0.0000 C   0  0  0  0  0  0  0  0  0  0  0  0
    2.3099   -3.3371    0.0000 C   0  0  0  0  0  0  0  0  0  0  0  0
    1.1550   -1.3306    0.0000 C   0  0  0  0  0  0  0  0  0  0  0  0
    3.4489   -1.3306    0.0000 C   0  0  0  0  0  0  0  0  0  0  0  0
    1.1550   -3.9918    0.0000 C   0  0  0  0  0  0  0  0  0  0  0  0
    3.4489   -3.9918    0.0000 C   0  0  0  0  0  0  0  0  0  0  0  0
    0.0000   -2.0065    0.0000 C   0  0  0  0  0  0  0  0  0  0  0  0
    4.5985   -1.9852    0.0000 C   0  0  0  0  0  0  0  0  0  0  0  0
    3.4489   -0.0000    0.0000 C   0  0  0  0  0  0  0  0  0  0  0  0
    0.0000   -3.3371    0.0000 C   0  0  0  0  0  0  0  0  0  0  0  0
    4.5985   -3.3371    0.0000 C   0  0  0  0  0  0  0  0  0  0  0  0
    3.4489   -5.3224    0.0000 C   0  0  0  0  0  0  0  0  0  0  0  0
  1  2  2  0  0  0  0 
  1  3  1  0  0  0  0 
  1  4  1  0  0  0  0 
  2  5  1  0  0  0  0 
  2  6  1  0  0  0  0 
  3  7  2  0  0  0  0 
  4  8  2  0  0  0  0 
  4  9  1  0  0  0  0 
  5 10  2  0  0  0  0 
  6 11  2  0  0  0  0 
  6 12  1  0  0  0  0 
 10  7  1  0  0  0  0 
  8 11  1  0  0  0  0 
M  END
> <Name>
1,4-dimethylnaphthalene

> <Source>
DSSTox2DMolFile

> <Tox>
4.430

> <CAS>
571-58-4

$$$$

  CDK

  9  9  0  0  0  0  0  0  0  0999 V2000
    0.0000   -2.3037    0.0000 Cl  0  0  0  0  0  0  0  0  0  0  0  0
    1.3315   -2.3037    0.0000 C   0  0  0  0  0  0  0  0  0  0  0  0
    1.9950   -1.1518    0.0000 C   0  0  0  0  0  0  0  0  0  0  0  0
    1.9950   -3.4555    0.0000 C   0  0  0  0  0  0  0  0  0  0  0  0
    1.3315   -0.0000    0.0000 Cl  0  0  0  0  0  0  0  0  0  0  0  0
    3.3265   -1.1518    0.0000 C   0  0  0  0  0  0  0  0  0  0  0  0
    3.3265   -3.4555    0.0000 C   0  0  0  0  0  0  0  0  0  0  0  0
    1.3315   -4.6073    0.0000 O   0  0  0  0  0  0  0  0  0  0  0  0
    3.9899   -2.3037    0.0000 C   0  0  0  0  0  0  0  0  0  0  0  0
  1  2  1  0  0  0  0 
  2  3  2  0  0  0  0 
  2  4  1  0  0  0  0 
  3  5  1  0  0  0  0 
  3  6  1  0  0  0  0 
  7  4  2  0  0  0  0 
  4  8  1  0  0  0  0 
  6  9  2  0  0  0  0 
  9  7  1  0  0  0  0 
M  END
> <Name>
Phenol, 2,3-dichloro-

> <Source>
DSSTox2DMolFile

> <Tox>
4.280

> <CAS>
576-24-9

$$$$

  CDK

  9  9  0  0  0  0  0  0  0  0999 V2000
    3.4525   -1.9814    0.0000 C   0  0  0  0  0  0  0  0  0  0  0  0
    3.4525   -3.3238    0.0000 C   0  0  0  0  0  0  0  0  0  0  0  0
    2.2986   -1.3194    0.0000 C   0  0  0  0  0  0  0  0  0  0  0  0
    4.5972   -1.3194    0.0000 C   0  0  0  0  0  0  0  0  0  0  0  0
    2.2986   -3.9857    0.0000 C   0  0  0  0  0  0  0  0  0  0  0  0
    1.1447   -1.9814    0.0000 C   0  0  0  0  0  0  0  0  0  0  0  0
    2.2986   -0.0000    0.0000 O   0  0  0  0  0  0  0  0  0  0  0  0
    1.1447   -3.3238    0.0000 C   0  0  0  0  0  0  0  0  0  0  0  0
    0.0000   -1.3194    0.0000 C   0  0  0  0  0  0  0  0  0  0  0  0
  1  2  1  0  0  0  0 
  1  3  2  0  0  0  0 
  1  4  1  0  0  0  0 
  2  5  2  0  0  0  0 
  3  6  1  0  0  0  0 
  3  7  1  0  0  0  0 
  5  8  1  0  0  0  0 
  6  8  2  0  0  0  0 
  6  9  1  0  0  0  0 
M  END
> <Name>
Phenol, 2,6-dimethyl-

> <Source>
DSSTox2DMolFile

> <Tox>
2.920

> <CAS>
576-26-1

$$$$

  CDK

 12 12  0  0  0  0  0  0  0  0999 V2000
    2.4938    0.8652    0.0000 C   0  0  0  0  0  0  0  0  0  0  0  0
    1.5268    0.8652    0.0000 C   0  0  0  0  0  0  0  0  0  0  0  0
    3.0027    1.7304    0.0000 C   0  0  0  0  0  0  0  0  0  0  0  0
    3.0027    0.0000    0.0000 Br  0  0  0  0  0  0  0  0  0  0  0  0
    1.0179    1.7304    0.0000 C   0  0  0  0  0  0  0  0  0  0  0  0
    1.0179    0.0000    0.0000 Br  0  0  0  0  0  0  0  0  0  0  0  0
    2.4938    2.5956    0.0000 C   0  0  0  0  0  0  0  0  0  0  0  0
    4.0206    1.7304    0.0000 Br  0  0  0  0  0  0  0  0  0  0  0  0
    1.5268    2.5956    0.0000 C   0  0  0  0  0  0  0  0  0  0  0  0
    0.0000    1.7304    0.0000 O   0  0  0  0  0  0  0  0  0  0  0  0
    3.0027    3.4608    0.0000 Br  0  0  0  0  0  0  0  0  0  0  0  0
    1.0179    3.4608    0.0000 C   0  0  0  0  0  0  0  0  0  0  0  0
  2  1  2  0  0  0  0 
  1  3  1  0  0  0  0 
  1  4  1  0  0  0  0 
  5  2  1  0  0  0  0 
  2  6  1  0  0  0  0 
  3  7  2  0  0  0  0 
  3  8  1  0  0  0  0 
  9  5  2  0  0  0  0 
  5 10  1  0  0  0  0 
  7  9  1  0  0  0  0 
  7 11  1  0  0  0  0 
  9 12  1  0  0  0  0 
M  END
> <Name>
o-Cresol, tetrabromo- (8CI)

> <Source>
NIST2DMolFile

> <Tox>
5.570

> <CAS>
576-55-6

$$$$

  CDK

 10 10  0  0  0  0  0  0  0  0999 V2000
    0.0000    1.4684    0.0000 C   0  0  0  0  0  0  0  0  0  0  0  0
    0.8608    1.9747    0.0000 C   0  0  0  0  0  0  0  0  0  0  0  0
    0.0000    0.5063    0.0000 C   0  0  0  0  0  0  0  0  0  0  0  0
    1.7722    1.4684    0.0000 C   0  0  0  0  0  0  0  0  0  0  0  0
    0.8608    2.9874    0.0000 Br  0  0  0  0  0  0  0  0  0  0  0  0
    0.8608    0.0000    0.0000 C   0  0  0  0  0  0  0  0  0  0  0  0
    1.7722    0.5063    0.0000 C   0  0  0  0  0  0  0  0  0  0  0  0
    2.5823    1.9747    0.0000 N   0  0  0  0  0  0  0  0  0  0  0  0
    3.5950    1.9747    0.0000 O   0  0  0  0  0  0  0  0  0  0  0  0
    2.5823    2.9874    0.0000 O   0  0  0  0  0  0  0  0  0  0  0  0
  1  2  2  0  0  0  0 
  3  1  1  0  0  0  0 
  2  4  1  0  0  0  0 
  2  5  1  0  0  0  0 
  6  3  2  0  0  0  0 
  4  7  2  0  0  0  0 
  4  8  1  0  0  0  0 
  7  6  1  0  0  0  0 
  8  9  2  0  0  0  0 
  8 10  2  0  0  0  0 
M  END
> <Name>
Benzene, 1-bromo-2-nitro-

> <Source>
NIST2DMolFile

> <Tox>
3.750

> <CAS>
577-19-5

$$$$

  CDK

 13 13  0  0  0  0  0  0  0  0999 V2000
    2.5263    1.7179    0.0000 C   0  0  0  0  0  0  0  0  0  0  0  0
    1.5158    1.7179    0.0000 C   0  0  0  0  0  0  0  0  0  0  0  0
    3.0315    2.5768    0.0000 C   0  0  0  0  0  0  0  0  0  0  0  0
    3.0315    0.8589    0.0000 N   0  0  0  0  0  0  0  0  0  0  0  0
    1.0105    2.5768    0.0000 C   0  0  0  0  0  0  0  0  0  0  0  0
    2.5263    3.4357    0.0000 C   0  0  0  0  0  0  0  0  0  0  0  0
    4.0420    2.5768    0.0000 N   0  0  0  0  0  0  0  0  0  0  0  0
    4.0420    0.8589    0.0000 O   0  0  0  0  0  0  0  0  0  0  0  0
    2.5263    0.0000    0.0000 O   0  0  0  0  0  0  0  0  0  0  0  0
    1.5158    3.4357    0.0000 C   0  0  0  0  0  0  0  0  0  0  0  0
    0.0000    2.5768    0.0000 O   0  0  0  0  0  0  0  0  0  0  0  0
    4.5473    3.4357    0.0000 O   0  0  0  0  0  0  0  0  0  0  0  0
    4.4967    1.7179    0.0000 O   0  0  0  0  0  0  0  0  0  0  0  0
  2  1  2  0  0  0  0 
  1  3  1  0  0  0  0 
  1  4  1  0  0  0  0 
  5  2  1  0  0  0  0 
  3  6  2  0  0  0  0 
  3  7  1  0  0  0  0 
  4  8  2  0  0  0  0 
  4  9  2  0  0  0  0 
 10  5  2  0  0  0  0 
  5 11  1  0  0  0  0 
  6 10  1  0  0  0  0 
  7 12  2  0  0  0  0 
  7 13  2  0  0  0  0 
M  END
> <Name>
Phenol, 3,4-dinitro-

> <Source>
NIST2DMolFile

> <Tox>
3.270

> <CAS>
577-71-9

$$$$

  CDK

 11 11  0  0  0  0  0  0  0  0999 V2000
    2.3093   -1.3340    0.0000 C   0  0  0  0  0  0  0  0  0  0  0  0
    3.4455   -2.0057    0.0000 C   0  0  0  0  0  0  0  0  0  0  0  0
    1.1546   -2.0057    0.0000 C   0  0  0  0  0  0  0  0  0  0  0  0
    2.3093   -0.0000    0.0000 N   0  0  0  0  0  0  0  0  0  0  0  0
    3.4455   -3.3351    0.0000 C   0  0  0  0  0  0  0  0  0  0  0  0
    4.6002   -1.3340    0.0000 C   0  0  0  0  0  0  0  0  0  0  0  0
    1.1546   -3.3351    0.0000 C   0  0  0  0  0  0  0  0  0  0  0  0
    0.0000   -1.3340    0.0000 C   0  0  0  0  0  0  0  0  0  0  0  0
    2.3093   -3.9929    0.0000 C   0  0  0  0  0  0  0  0  0  0  0  0
    4.6002   -0.0000    0.0000 C   0  0  0  0  0  0  0  0  0  0  0  0
    0.0000   -0.0000    0.0000 C   0  0  0  0  0  0  0  0  0  0  0  0
  1  2  2  0  0  0  0 
  1  3  1  0  0  0  0 
  1  4  1  0  0  0  0 
  2  5  1  0  0  0  0 
  2  6  1  0  0  0  0 
  7  3  2  0  0  0  0 
  3  8  1  0  0  0  0 
  5  9  2  0  0  0  0 
  6 10  1  0  0  0  0 
  9  7  1  0  0  0  0 
  8 11  1  0  0  0  0 
M  END
> <Name>
Benzenamine, 2,6-diethyl-

> <Source>
DSSTox2DMolFile

> <Tox>
3.310

> <CAS>
579-66-8

$$$$

  CDK

 10 10  0  0  0  0  0  0  0  0999 V2000
    1.0084    0.0000    0.0000 C   0  0  0  0  0  0  0  0  0  0  0  0
    1.5126    0.8571    0.0000 C   0  0  0  0  0  0  0  0  0  0  0  0
    0.0000    0.0000    0.0000 N   0  0  0  0  0  0  0  0  0  0  0  0
    1.0084    1.7142    0.0000 C   0  0  0  0  0  0  0  0  0  0  0  0
    2.5209    0.8571    0.0000 C   0  0  0  0  0  0  0  0  0  0  0  0
    3.0251    1.7142    0.0000 C   0  0  0  0  0  0  0  0  0  0  0  0
    3.0251    0.0000    0.0000 C   0  0  0  0  0  0  0  0  0  0  0  0
    4.0335    1.7142    0.0000 C   0  0  0  0  0  0  0  0  0  0  0  0
    4.0335    0.0000    0.0000 C   0  0  0  0  0  0  0  0  0  0  0  0
    4.5377    0.8571    0.0000 C   0  0  0  0  0  0  0  0  0  0  0  0
  1  2  1  0  0  0  0 
  1  3  1  0  0  0  0 
  2  4  1  0  0  0  0 
  2  5  1  0  0  0  0 
  6  5  2  0  0  0  0 
  5  7  1  0  0  0  0 
  8  6  1  0  0  0  0 
  7  9  2  0  0  0  0 
 10  8  2  0  0  0  0 
  9 10  1  0  0  0  0 
M  END
> <Name>
Benzeneethanamine, beta-methyl- (9CI)

> <Source>
NIST2DMolFile

> <Tox>
2.720

> <CAS>
582-22-9

$$$$

  CDK

 10 10  0  0  0  0  0  0  0  0999 V2000
    3.6190    0.4795    0.0175 O   0  0  0  0  0  0  0  0  0  0  0  0
    2.2632    0.8856   -0.0105 C   0  0  0  0  0  0  0  0  0  0  0  0
    1.3196   -0.3245   -0.0055 C   0  0  0  0  0  0  0  0  0  0  0  0
    1.8089   -1.4722   -0.0061 O   0  0  0  0  0  0  0  0  0  0  0  0
   -0.1204   -0.1222   -0.0022 C   0  0  0  0  0  0  0  0  0  0  0  0
   -0.6431    1.1711   -0.0032 C   0  0  0  0  0  0  0  0  0  0  0  0
   -0.9792   -1.2215    0.0018 C   0  0  0  0  0  0  0  0  0  0  0  0
   -2.0243    1.3653   -0.0002 C   0  0  0  0  0  0  0  0  0  0  0  0
   -2.3606   -1.0272    0.0048 C   0  0  0  0  0  0  0  0  0  0  0  0
   -2.8830    0.2661    0.0037 C   0  0  0  0  0  0  0  0  0  0  0  0
  1  2  1  0  0  0  0 
  3  2  1  0  0  0  0 
  4  3  2  0  0  0  0 
  5  3  1  0  0  0  0 
  5  6  2  0  0  0  0 
  5  7  1  0  0  0  0 
  6  8  1  0  0  0  0 
  7  9  2  0  0  0  0 
  8 10  2  0  0  0  0 
  9 10  1  0  0  0  0 
M  END
> <Name>
2-hydroxy-1-phenylethanone

> <Source>
Chemidplus3DMolFile

> <Tox>
3.080

> <CAS>
582-24-1

$$$$

  CDK

  8  8  0  0  0  0  0  0  0  0999 V2000
    0.7071    1.3509   -0.0001 C   0  0  0  0  0  0  0  0  0  0  0  0
   -0.5319    0.6975    0.0004 C   0  0  0  0  0  0  0  0  0  0  0  0
    1.8752    0.6733   -0.0003 N   0  0  0  0  0  0  0  0  0  0  0  0
   -0.5508   -0.7052    0.0003 C   0  0  0  0  0  0  0  0  0  0  0  0
   -1.7845    1.4921    0.0001 C   0  0  0  0  0  0  0  0  0  0  0  0
    1.8606   -0.6796    0.0000 C   0  0  0  0  0  0  0  0  0  0  0  0
    0.6646   -1.3937    0.0003 C   0  0  0  0  0  0  0  0  0  0  0  0
   -1.8304   -1.4573   -0.0004 C   0  0  0  0  0  0  0  0  0  0  0  0
  1  2  1  0  0  0  0 
  1  3  2  0  0  0  0 
  2  4  2  0  0  0  0 
  2  5  1  0  0  0  0 
  6  3  1  0  0  0  0 
  4  7  1  0  0  0  0 
  4  8  1  0  0  0  0 
  7  6  2  0  0  0  0 
M  END
> <Name>
Pyridine, 3,4-dimethyl-

> <Source>
DougDB3DMolFile

> <Tox>
2.500

> <CAS>
583-58-4

$$$$

  CDK

  8  8  0  0  0  0  0  0  0  0999 V2000
   -1.0013    0.4112   -0.1756 C   0  0  0  0  0  0  0  0  0  0  0  0
   -0.3984   -0.9706   -0.4033 C   0  0  0  0  0  0  0  0  0  0  0  0
   -0.0248    1.5642   -0.0895 C   0  0  0  0  0  0  0  0  0  0  0  0
   -2.2022    0.5794   -0.0840 O   0  0  0  0  0  0  0  0  0  0  0  0
    1.0417   -0.8518   -0.8938 C   0  0  0  0  0  0  0  0  0  0  0  0
   -0.4993   -1.8025    0.8648 C   0  0  0  0  0  0  0  0  0  0  0  0
    1.2316    1.1597    0.6586 C   0  0  0  0  0  0  0  0  0  0  0  0
    1.9360   -0.0370    0.0297 C   0  0  0  0  0  0  0  0  0  0  0  0
  1  2  1  0  0  0  0 
  1  3  1  0  0  0  0 
  1  4  2  0  0  0  0 
  2  5  1  0  0  0  0 
  2  6  1  0  0  0  0 
  7  3  1  0  0  0  0 
  5  8  1  0  0  0  0 
  8  7  1  0  0  0  0 
M  END
> <Name>
Cyclohexanone, 2-methyl-

> <Source>
DougDB3DMolFile

> <Tox>
2.190

> <CAS>
583-60-8

$$$$

  CDK

  9  9  0  0  0  0  0  0  0  0999 V2000
    1.7493    2.9988    0.0000 Br  0  0  0  0  0  0  0  0  0  0  0  0
    1.7493    1.9992    0.0000 C   0  0  0  0  0  0  0  0  0  0  0  0
    0.8996    1.4994    0.0000 C   0  0  0  0  0  0  0  0  0  0  0  0
    2.5989    1.4994    0.0000 C   0  0  0  0  0  0  0  0  0  0  0  0
    0.0000    1.9992    0.0000 O   0  0  0  0  0  0  0  0  0  0  0  0
    0.8996    0.4998    0.0000 C   0  0  0  0  0  0  0  0  0  0  0  0
    2.5989    0.4998    0.0000 C   0  0  0  0  0  0  0  0  0  0  0  0
    1.7493    0.0000    0.0000 C   0  0  0  0  0  0  0  0  0  0  0  0
    3.4985    0.0000    0.0000 O   0  0  0  0  0  0  0  0  0  0  0  0
  1  2  1  0  0  0  0 
  3  2  2  0  0  0  0 
  2  4  1  0  0  0  0 
  3  5  1  0  0  0  0 
  6  3  1  0  0  0  0 
  4  7  2  0  0  0  0 
  8  6  2  0  0  0  0 
  7  8  1  0  0  0  0 
  7  9  1  0  0  0  0 
M  END
> <Name>
1,4-Benzenediol, 2-bromo-

> <Source>
NIST2DMolFile

> <Tox>
4.680

> <CAS>
583-69-7

$$$$

  CDK

  9  9  0  0  0  0  0  0  0  0999 V2000
    4.6082   -2.6589    0.0000 O   0  0  0  0  0  0  0  0  0  0  0  0
    3.4561   -1.9953    0.0000 C   0  0  0  0  0  0  0  0  0  0  0  0
    2.3041   -2.6589    0.0000 C   0  0  0  0  0  0  0  0  0  0  0  0
    3.4561   -0.6636    0.0000 C   0  0  0  0  0  0  0  0  0  0  0  0
    1.1520   -1.9953    0.0000 C   0  0  0  0  0  0  0  0  0  0  0  0
    2.3041   -0.0000    0.0000 C   0  0  0  0  0  0  0  0  0  0  0  0
    4.6082   -0.0000    0.0000 Cl  0  0  0  0  0  0  0  0  0  0  0  0
    0.0000   -2.6589    0.0000 Cl  0  0  0  0  0  0  0  0  0  0  0  0
    1.1520   -0.6636    0.0000 C   0  0  0  0  0  0  0  0  0  0  0  0
  1  2  1  0  0  0  0 
  2  3  2  0  0  0  0 
  2  4  1  0  0  0  0 
  3  5  1  0  0  0  0 
  6  4  2  0  0  0  0 
  4  7  1  0  0  0  0 
  5  8  1  0  0  0  0 
  5  9  2  0  0  0  0 
  9  6  1  0  0  0  0 
M  END
> <Name>
Phenol, 2,5-dichloro-

> <Source>
DSSTox2DMolFile

> <Tox>
4.130

> <CAS>
583-78-8

$$$$

  CDK

  6  5  0  0  0  0  0  0  0  0999 V2000
    2.5083    0.1381   -0.3101 C   0  0  0  0  0  0  0  0  0  0  0  0
    1.2438    0.7324    0.2692 C   0  0  0  0  0  0  0  0  0  0  0  0
   -0.0068   -0.0352   -0.1974 C   0  0  0  0  0  0  0  0  0  0  0  0
   -1.2788    0.6231    0.3552 C   0  0  0  0  0  0  0  0  0  0  0  0
    0.0008   -1.3811    0.2470 O   0  0  0  0  0  0  0  0  0  0  0  0
   -2.5258    0.1378   -0.3486 C   0  0  0  0  0  0  0  0  0  0  0  0
  1  2  1  0  0  0  0 
  2  3  1  0  0  0  0 
  3  4  1  0  0  0  0 
  3  5  1  0  0  0  0 
  4  6  1  0  0  0  0 
M  END
> <Name>
3-Pentanol

> <Source>
DougDB3DMolFile

> <Tox>
1.756

> <CAS>
584-02-1

$$$$

  CDK

 13 13  0  0  0  0  0  0  0  0999 V2000
    0.9974    0.0000    0.0000 O   0  0  0  0  0  0  0  0  0  0  0  0
    0.9974    0.9974    0.0000 N   0  0  0  0  0  0  0  0  0  0  0  0
    0.0000    0.9974    0.0000 O   0  0  0  0  0  0  0  0  0  0  0  0
    1.8951    1.4962    0.0000 C   0  0  0  0  0  0  0  0  0  0  0  0
    2.7430    0.9974    0.0000 C   0  0  0  0  0  0  0  0  0  0  0  0
    1.8951    2.4936    0.0000 C   0  0  0  0  0  0  0  0  0  0  0  0
    3.5908    1.4962    0.0000 C   0  0  0  0  0  0  0  0  0  0  0  0
    2.7430    2.9923    0.0000 C   0  0  0  0  0  0  0  0  0  0  0  0
    4.4885    0.9974    0.0000 N   0  0  0  0  0  0  0  0  0  0  0  0
    3.5908    2.4936    0.0000 C   0  0  0  0  0  0  0  0  0  0  0  0
    4.4885    0.0000    0.0000 O   0  0  0  0  0  0  0  0  0  0  0  0
    5.4859    0.9974    0.0000 O   0  0  0  0  0  0  0  0  0  0  0  0
    4.4885    2.9923    0.0000 Br  0  0  0  0  0  0  0  0  0  0  0  0
  1  2  2  0  0  0  0 
  2  3  2  0  0  0  0 
  2  4  1  0  0  0  0 
  5  4  2  0  0  0  0 
  4  6  1  0  0  0  0 
  7  5  1  0  0  0  0 
  6  8  2  0  0  0  0 
  9  7  1  0  0  0  0 
 10  7  2  0  0  0  0 
  8 10  1  0  0  0  0 
 11  9  2  0  0  0  0 
  9 12  2  0  0  0  0 
 13 10  1  0  0  0  0 
M  END
> <Name>
Benzene, 1-bromo-2,4-dinitro-

> <Source>
NIST2DMolFile

> <Tox>
5.310

> <CAS>
584-48-5

$$$$

  CDK

  8  7  0  0  0  0  0  0  0  0999 V2000
    2.6557    1.0214    0.0000 C   0  0  0  0  0  0  0  0  0  0  0  0
    3.5238    1.4810    0.0000 C   0  0  0  0  0  0  0  0  0  0  0  0
    2.6557    0.0000    0.0000 Br  0  0  0  0  0  0  0  0  0  0  0  0
    1.7875    1.4810    0.0000 C   0  0  0  0  0  0  0  0  0  0  0  0
    4.3920    1.0214    0.0000 O   0  0  0  0  0  0  0  0  0  0  0  0
    3.5238    2.5024    0.0000 O   0  0  0  0  0  0  0  0  0  0  0  0
    0.8682    1.0214    0.0000 C   0  0  0  0  0  0  0  0  0  0  0  0
    0.0000    1.4810    0.0000 C   0  0  0  0  0  0  0  0  0  0  0  0
  1  2  1  0  0  0  0 
  1  3  1  0  0  0  0 
  1  4  1  0  0  0  0 
  2  5  1  0  0  0  0 
  2  6  2  0  0  0  0 
  4  7  1  0  0  0  0 
  7  8  1  0  0  0  0 
M  END
> <Name>
Valeric acid, 2-bromo- (8CI)

> <Source>
NIST2DMolFile

> <Tox>
2.958

> <CAS>
584-93-0

$$$$

  CDK

 11 11  0  0  0  0  0  0  0  0999 V2000
    1.5155    3.4351    0.0000 C   0  0  0  0  0  0  0  0  0  0  0  0
    1.0608    2.5763    0.0000 C   0  0  0  0  0  0  0  0  0  0  0  0
    2.5258    3.4351    0.0000 C   0  0  0  0  0  0  0  0  0  0  0  0
    1.4650    1.7681    0.0000 C   0  0  0  0  0  0  0  0  0  0  0  0
    0.0000    2.5763    0.0000 O   0  0  0  0  0  0  0  0  0  0  0  0
    3.0310    2.5763    0.0000 C   0  0  0  0  0  0  0  0  0  0  0  0
    2.5258    1.7681    0.0000 C   0  0  0  0  0  0  0  0  0  0  0  0
    3.0310    0.8588    0.0000 C   0  0  0  0  0  0  0  0  0  0  0  0
    4.0413    0.8588    0.0000 C   0  0  0  0  0  0  0  0  0  0  0  0
    2.5258    0.0000    0.0000 C   0  0  0  0  0  0  0  0  0  0  0  0
    3.5361    0.0000    0.0000 C   0  0  0  0  0  0  0  0  0  0  0  0
  1  2  2  0  0  0  0 
  3  1  1  0  0  0  0 
  2  4  1  0  0  0  0 
  2  5  1  0  0  0  0 
  6  3  2  0  0  0  0 
  4  7  2  0  0  0  0 
  7  6  1  0  0  0  0 
  7  8  1  0  0  0  0 
  8  9  1  0  0  0  0 
  8 10  1  0  0  0  0 
  8 11  1  0  0  0  0 
M  END
> <Name>
Phenol, 3-(1,1-dimethylethyl)-

> <Source>
NIST2DMolFile

> <Tox>
3.740

> <CAS>
585-34-2

$$$$

  CDK

  9  9  0  0  0  0  0  0  0  0999 V2000
    0.8754   -2.5262    4.8330 Br  0  0  0  0  0  0  0  0  0  0  0  0
    1.8328   -0.9437    4.1709 C   0  0  0  0  0  0  0  0  0  0  0  0
    1.8509   -0.9767    2.6799 C   0  0  0  0  0  0  0  0  0  0  0  0
    3.1998   -0.8994    4.8560 C   0  0  0  0  0  0  0  0  0  0  0  0
    0.8008   -0.4105    1.9570 C   0  0  0  0  0  0  0  0  0  0  0  0
    2.9180   -1.5734    2.0082 C   0  0  0  0  0  0  0  0  0  0  0  0
    0.8176   -0.4410    0.5626 C   0  0  0  0  0  0  0  0  0  0  0  0
    2.9348   -1.6038    0.6137 C   0  0  0  0  0  0  0  0  0  0  0  0
    1.8846   -1.0376   -0.1090 C   0  0  0  0  0  0  0  0  0  0  0  0
  1  2  1  0  0  0  0 
  2  3  1  0  0  0  0 
  2  4  1  0  0  0  0 
  3  5  2  0  0  0  0 
  3  6  1  0  0  0  0 
  5  7  1  0  0  0  0 
  6  8  2  0  0  0  0 
  7  9  2  0  0  0  0 
  8  9  1  0  0  0  0 
M  END
> <Name>
alpha-Methylbenzyl bromide

> <Source>
Chemidplus3DMolFile

> <Tox>
2.331

> <CAS>
585-71-7

$$$$

  CDK

 10 10  0  0  0  0  0  0  0  0999 V2000
    1.9934    0.8472    0.0000 C   0  0  0  0  0  0  0  0  0  0  0  0
    2.9900    0.8472    0.0000 C   0  0  0  0  0  0  0  0  0  0  0  0
    1.4950    1.6944    0.0000 C   0  0  0  0  0  0  0  0  0  0  0  0
    3.4884    1.6944    0.0000 C   0  0  0  0  0  0  0  0  0  0  0  0
    3.4884    0.0000    0.0000 Br  0  0  0  0  0  0  0  0  0  0  0  0
    1.9934    2.5914    0.0000 C   0  0  0  0  0  0  0  0  0  0  0  0
    0.4983    1.6944    0.0000 N   0  0  0  0  0  0  0  0  0  0  0  0
    2.9900    2.5914    0.0000 C   0  0  0  0  0  0  0  0  0  0  0  0
    0.0000    0.8472    0.0000 O   0  0  0  0  0  0  0  0  0  0  0  0
    0.0000    2.5914    0.0000 O   0  0  0  0  0  0  0  0  0  0  0  0
  1  2  2  0  0  0  0 
  3  1  1  0  0  0  0 
  2  4  1  0  0  0  0 
  2  5  1  0  0  0  0 
  6  3  2  0  0  0  0 
  3  7  1  0  0  0  0 
  4  8  2  0  0  0  0 
  8  6  1  0  0  0  0 
  7  9  2  0  0  0  0 
  7 10  2  0  0  0  0 
M  END
> <Name>
Benzene, 1-bromo-3-nitro-

> <Source>
NIST2DMolFile

> <Tox>
4.030

> <CAS>
585-79-5

$$$$

  CDK

 10 10  0  0  0  0  0  0  0  0999 V2000
    0.0000    1.7142    0.0000 C   0  0  0  0  0  0  0  0  0  0  0  0
    0.5042    0.8571    0.0000 C   0  0  0  0  0  0  0  0  0  0  0  0
    0.0000    0.0000    0.0000 C   0  0  0  0  0  0  0  0  0  0  0  0
    1.5126    0.8571    0.0000 C   0  0  0  0  0  0  0  0  0  0  0  0
    2.0168    1.7142    0.0000 C   0  0  0  0  0  0  0  0  0  0  0  0
    2.0168    0.0000    0.0000 C   0  0  0  0  0  0  0  0  0  0  0  0
    3.0251    1.7142    0.0000 C   0  0  0  0  0  0  0  0  0  0  0  0
    3.0251    0.0000    0.0000 C   0  0  0  0  0  0  0  0  0  0  0  0
    3.5293    0.8571    0.0000 C   0  0  0  0  0  0  0  0  0  0  0  0
    4.5377    0.8571    0.0000 Br  0  0  0  0  0  0  0  0  0  0  0  0
  1  2  1  0  0  0  0 
  2  3  1  0  0  0  0 
  2  4  1  0  0  0  0 
  5  4  2  0  0  0  0 
  4  6  1  0  0  0  0 
  7  5  1  0  0  0  0 
  6  8  2  0  0  0  0 
  9  7  2  0  0  0  0 
  8  9  1  0  0  0  0 
  9 10  1  0  0  0  0 
M  END
> <Name>
1-bromo-4-propan-2-ylbenzene

> <Source>
NIST2DMolFile

> <Tox>
3.850

> <CAS>
586-61-8

$$$$

  CDK

 10 10  0  0  0  0  0  0  0  0999 V2000
    0.0503    1.7098    0.0000 O   0  0  0  0  0  0  0  0  0  0  0  0
    0.5029    0.8549    0.0000 N   0  0  0  0  0  0  0  0  0  0  0  0
    0.0000    0.0000    0.0000 O   0  0  0  0  0  0  0  0  0  0  0  0
    1.5590    0.8549    0.0000 C   0  0  0  0  0  0  0  0  0  0  0  0
    2.0618    1.7098    0.0000 C   0  0  0  0  0  0  0  0  0  0  0  0
    2.0618    0.0000    0.0000 C   0  0  0  0  0  0  0  0  0  0  0  0
    3.0676    1.7098    0.0000 C   0  0  0  0  0  0  0  0  0  0  0  0
    3.0676    0.0000    0.0000 C   0  0  0  0  0  0  0  0  0  0  0  0
    3.5705    0.8549    0.0000 C   0  0  0  0  0  0  0  0  0  0  0  0
    4.5763    0.8549    0.0000 Br  0  0  0  0  0  0  0  0  0  0  0  0
  1  2  2  0  0  0  0 
  2  3  2  0  0  0  0 
  2  4  1  0  0  0  0 
  5  4  2  0  0  0  0 
  4  6  1  0  0  0  0 
  7  5  1  0  0  0  0 
  6  8  2  0  0  0  0 
  9  7  2  0  0  0  0 
  8  9  1  0  0  0  0 
  9 10  1  0  0  0  0 
M  END
> <Name>
Benzene, 1-bromo-4-nitro-

> <Source>
NIST2DMolFile

> <Tox>
3.380

> <CAS>
586-78-7

$$$$

  CDK

  9  9  0  0  0  0  0  0  0  0999 V2000
    3.5672    0.2512    0.0000 C   0  0  0  0  0  0  0  0  0  0  0  0
    2.6126    0.0000    0.0000 C   0  0  0  0  0  0  0  0  0  0  0  0
    1.7083    0.5024    0.0000 C   0  0  0  0  0  0  0  0  0  0  0  0
    1.7083    1.5073    0.0000 C   0  0  0  0  0  0  0  0  0  0  0  0
    0.8541    0.0000    0.0000 C   0  0  0  0  0  0  0  0  0  0  0  0
    0.8541    2.0097    0.0000 C   0  0  0  0  0  0  0  0  0  0  0  0
    0.0000    0.5024    0.0000 C   0  0  0  0  0  0  0  0  0  0  0  0
    0.8541    3.0146    0.0000 N   0  0  0  0  0  0  0  0  0  0  0  0
    0.0000    1.5073    0.0000 C   0  0  0  0  0  0  0  0  0  0  0  0
  1  2  1  0  0  0  0 
  2  3  1  0  0  0  0 
  4  3  2  0  0  0  0 
  3  5  1  0  0  0  0 
  6  4  1  0  0  0  0 
  5  7  2  0  0  0  0 
  8  6  1  0  0  0  0 
  9  6  2  0  0  0  0 
  7  9  1  0  0  0  0 
M  END
> <Name>
Benzenamine, 3-ethyl- (9CI)

> <Source>
NIST2DMolFile

> <Tox>
2.970

> <CAS>
587-02-0

$$$$

  CDK

  9  9  0  0  0  0  0  0  0  0999 V2000
    0.0000    0.0000    0.0000 C   0  0  0  0  0  0  0  0  0  0  0  0
    0.5006    0.9010    0.0000 C   0  0  0  0  0  0  0  0  0  0  0  0
    0.0000    1.7520    0.0000 C   0  0  0  0  0  0  0  0  0  0  0  0
    1.5017    0.9010    0.0000 C   0  0  0  0  0  0  0  0  0  0  0  0
    0.5006    2.6029    0.0000 C   0  0  0  0  0  0  0  0  0  0  0  0
    2.0022    1.7520    0.0000 C   0  0  0  0  0  0  0  0  0  0  0  0
    1.5017    2.6029    0.0000 C   0  0  0  0  0  0  0  0  0  0  0  0
    2.9033    2.2525    0.0000 C   0  0  0  0  0  0  0  0  0  0  0  0
    3.7542    1.7520    0.0000 O   0  0  0  0  0  0  0  0  0  0  0  0
  1  2  1  0  0  0  0 
  2  3  2  0  0  0  0 
  4  2  1  0  0  0  0 
  3  5  1  0  0  0  0 
  6  4  2  0  0  0  0 
  5  7  2  0  0  0  0 
  8  6  1  0  0  0  0 
  7  6  1  0  0  0  0 
  9  8  1  0  0  0  0 
M  END
> <Name>
Benzenemethanol, 3-methyl-

> <Source>
NIST2DMolFile

> <Tox>
2.760

> <CAS>
587-03-1

$$$$

  CDK

  9  9  0  0  0  0  0  0  0  0999 V2000
    0.0000    0.0000    0.0000 O   0  0  0  0  0  0  0  0  0  0  0  0
    0.4970    0.8450    0.0000 C   0  0  0  0  0  0  0  0  0  0  0  0
    1.5408    0.8450    0.0000 C   0  0  0  0  0  0  0  0  0  0  0  0
    2.0378    1.7396    0.0000 C   0  0  0  0  0  0  0  0  0  0  0  0
    2.0378    0.0000    0.0000 C   0  0  0  0  0  0  0  0  0  0  0  0
    3.0319    1.7396    0.0000 C   0  0  0  0  0  0  0  0  0  0  0  0
    3.0319    0.0000    0.0000 C   0  0  0  0  0  0  0  0  0  0  0  0
    3.5289    2.5846    0.0000 Cl  0  0  0  0  0  0  0  0  0  0  0  0
    3.5289    0.8450    0.0000 C   0  0  0  0  0  0  0  0  0  0  0  0
  1  2  2  0  0  0  0 
  2  3  1  0  0  0  0 
  4  3  2  0  0  0  0 
  3  5  1  0  0  0  0 
  6  4  1  0  0  0  0 
  5  7  2  0  0  0  0 
  6  8  1  0  0  0  0 
  9  6  2  0  0  0  0 
  7  9  1  0  0  0  0 
M  END
> <Name>
Benzaldehyde, m-chloro- (8CI)

> <Source>
NIST2DMolFile

> <Tox>
3.406

> <CAS>
587-04-2

$$$$

  CDK

 10 10  0  0  0  0  0  0  0  0999 V2000
    1.4930    0.8460    0.0000 C   0  0  0  0  0  0  0  0  0  0  0  0
    1.9906    1.7418    0.0000 C   0  0  0  0  0  0  0  0  0  0  0  0
    0.4977    0.8460    0.0000 N   0  0  0  0  0  0  0  0  0  0  0  0
    2.9859    1.7418    0.0000 C   0  0  0  0  0  0  0  0  0  0  0  0
    0.0000    0.0000    0.0000 C   0  0  0  0  0  0  0  0  0  0  0  0
    3.4836    2.5878    0.0000 C   0  0  0  0  0  0  0  0  0  0  0  0
    3.4836    0.8460    0.0000 C   0  0  0  0  0  0  0  0  0  0  0  0
    4.4789    2.5878    0.0000 C   0  0  0  0  0  0  0  0  0  0  0  0
    4.4789    0.8460    0.0000 C   0  0  0  0  0  0  0  0  0  0  0  0
    4.9765    1.7418    0.0000 C   0  0  0  0  0  0  0  0  0  0  0  0
  1  2  1  0  0  0  0 
  1  3  1  0  0  0  0 
  2  4  1  0  0  0  0 
  3  5  1  0  0  0  0 
  6  4  2  0  0  0  0 
  4  7  1  0  0  0  0 
  8  6  1  0  0  0  0 
  7  9  2  0  0  0  0 
 10  8  2  0  0  0  0 
  9 10  1  0  0  0  0 
M  END
> <Name>
Benzeneethanamine, N-methyl- (9CI)

> <Source>
NIST2DMolFile

> <Tox>
2.590

> <CAS>
589-08-2

$$$$

  CDK

  9  9  0  0  0  0  0  0  0  0999 V2000
    5.9806   -1.1542    0.0000 N   0  0  0  0  0  0  0  0  0  0  0  0
    4.6529   -1.1542    0.0000 C   0  0  0  0  0  0  0  0  0  0  0  0
    3.9890   -2.3025    0.0000 C   0  0  0  0  0  0  0  0  0  0  0  0
    3.9890   -0.0000    0.0000 C   0  0  0  0  0  0  0  0  0  0  0  0
    2.6554   -2.3025    0.0000 C   0  0  0  0  0  0  0  0  0  0  0  0
    2.6554   -0.0000    0.0000 C   0  0  0  0  0  0  0  0  0  0  0  0
    1.9915   -1.1542    0.0000 C   0  0  0  0  0  0  0  0  0  0  0  0
    0.6638   -1.1542    0.0000 C   0  0  0  0  0  0  0  0  0  0  0  0
    0.0000   -0.0000    0.0000 C   0  0  0  0  0  0  0  0  0  0  0  0
  1  2  1  0  0  0  0 
  2  3  2  0  0  0  0 
  2  4  1  0  0  0  0 
  3  5  1  0  0  0  0 
  6  4  2  0  0  0  0 
  5  7  2  0  0  0  0 
  7  6  1  0  0  0  0 
  7  8  1  0  0  0  0 
  8  9  1  0  0  0  0 
M  END
> <Name>
Aniline, p-ethyl- (8CI)

> <Source>
DSSTox2DMolFile

> <Tox>
3.030

> <CAS>
589-16-2

$$$$

  CDK

 10  9  0  0  0  0  0  0  0  0999 V2000
    0.0000    0.0000    0.0000 C   0  0  0  0  0  0  0  0  0  0  0  0
    0.8616    0.4561    0.0000 C   0  0  0  0  0  0  0  0  0  0  0  0
    1.7232    0.0000    0.0000 C   0  0  0  0  0  0  0  0  0  0  0  0
    2.6355    0.4561    0.0000 C   0  0  0  0  0  0  0  0  0  0  0  0
    3.4971    0.0000    0.0000 O   0  0  0  0  0  0  0  0  0  0  0  0
    2.6355    1.4698    0.0000 O   0  0  0  0  0  0  0  0  0  0  0  0
    3.4971    2.0273    0.0000 C   0  0  0  0  0  0  0  0  0  0  0  0
    3.4971    2.9903    0.0000 C   0  0  0  0  0  0  0  0  0  0  0  0
    4.3587    3.5478    0.0000 C   0  0  0  0  0  0  0  0  0  0  0  0
    2.6355    3.5478    0.0000 C   0  0  0  0  0  0  0  0  0  0  0  0
  1  2  1  0  0  0  0 
  2  3  2  0  0  0  0 
  3  4  1  0  0  0  0 
  4  5  2  0  0  0  0 
  4  6  1  0  0  0  0 
  6  7  1  0  0  0  0 
  7  8  1  0  0  0  0 
  8  9  1  0  0  0  0 
  8 10  1  0  0  0  0 
M  END
> <Name>
Crotonicacid, isobutyl ester (6CI,8CI)

> <Source>
NIST2DMolFile

> <Tox>
2.660

> <CAS>
589-66-2

$$$$

  CDK

  8  7  0  0  0  0  0  0  0  0999 V2000
    3.5691    0.2609    0.4098 C   0  0  0  0  0  0  0  0  0  0  0  0
    2.2816    0.7905   -0.1815 C   0  0  0  0  0  0  0  0  0  0  0  0
    1.0820   -0.1017    0.1874 C   0  0  0  0  0  0  0  0  0  0  0  0
   -0.2185    0.4921   -0.3711 C   0  0  0  0  0  0  0  0  0  0  0  0
    1.2129   -1.4103   -0.3414 O   0  0  0  0  0  0  0  0  0  0  0  0
   -1.4508   -0.1430    0.2524 C   0  0  0  0  0  0  0  0  0  0  0  0
   -2.7263    0.4826   -0.2901 C   0  0  0  0  0  0  0  0  0  0  0  0
   -3.9555   -0.1449    0.3274 C   0  0  0  0  0  0  0  0  0  0  0  0
  1  2  1  0  0  0  0 
  2  3  1  0  0  0  0 
  3  4  1  0  0  0  0 
  3  5  1  0  0  0  0 
  4  6  1  0  0  0  0 
  6  7  1  0  0  0  0 
  7  8  1  0  0  0  0 
M  END
> <Name>
3-Heptanol

> <Source>
DougDB3DMolFile

> <Tox>
2.510

> <CAS>
589-82-2

$$$$

  CDK

  9  8  0  0  0  0  0  0  0  0999 V2000
    2.5892    1.4938    0.0000 C   0  0  0  0  0  0  0  0  0  0  0  0
    1.7427    0.9959    0.0000 C   0  0  0  0  0  0  0  0  0  0  0  0
    3.4855    0.9959    0.0000 C   0  0  0  0  0  0  0  0  0  0  0  0
    0.8963    1.4938    0.0000 C   0  0  0  0  0  0  0  0  0  0  0  0
    1.7427    0.0000    0.0000 O   0  0  0  0  0  0  0  0  0  0  0  0
    4.3320    1.4938    0.0000 C   0  0  0  0  0  0  0  0  0  0  0  0
    0.0000    0.9959    0.0000 C   0  0  0  0  0  0  0  0  0  0  0  0
    5.1784    0.9959    0.0000 C   0  0  0  0  0  0  0  0  0  0  0  0
    6.0747    1.4938    0.0000 C   0  0  0  0  0  0  0  0  0  0  0  0
  1  2  1  0  0  0  0 
  1  3  1  0  0  0  0 
  2  4  1  0  0  0  0 
  2  5  1  0  0  0  0 
  3  6  1  0  0  0  0 
  4  7  1  0  0  0  0 
  6  8  1  0  0  0  0 
  8  9  1  0  0  0  0 
M  END
> <Name>
(1)-Octan-3-ol

> <Source>
NIST2DMolFile

> <Tox>
2.940

> <CAS>
589-98-0

$$$$

  CDK

  9  8  0  0  0  0  0  0  0  0999 V2000
    5.7791   -1.3355    0.0000 C   0  0  0  0  0  0  0  0  0  0  0  0
    6.9365   -1.9911    0.0000 C   0  0  0  0  0  0  0  0  0  0  0  0
    4.6216   -1.9911    0.0000 O   0  0  0  0  0  0  0  0  0  0  0  0
    5.7791   -0.0000    0.0000 O   0  0  0  0  0  0  0  0  0  0  0  0
    8.0940   -1.3355    0.0000 C   0  0  0  0  0  0  0  0  0  0  0  0
    3.4723   -1.3355    0.0000 C   0  0  0  0  0  0  0  0  0  0  0  0
    2.3149   -1.9911    0.0000 C   0  0  0  0  0  0  0  0  0  0  0  0
    1.1574   -1.3355    0.0000 C   0  0  0  0  0  0  0  0  0  0  0  0
    0.0000   -1.9911    0.0000 C   0  0  0  0  0  0  0  0  0  0  0  0
  1  2  1  0  0  0  0 
  1  3  1  0  0  0  0 
  1  4  2  0  0  0  0 
  2  5  1  0  0  0  0 
  3  6  1  0  0  0  0 
  6  7  1  0  0  0  0 
  7  8  1  0  0  0  0 
  8  9  1  0  0  0  0 
M  END
> <Name>
Propanoic acid, butyl ester

> <Source>
DSSTox2DMolFile

> <Tox>
3.170

> <CAS>
590-01-2

$$$$

  CDK

  4  3  0  0  0  0  0  0  0  0999 V2000
    0.0000   -0.0000    0.0000 Br  0  0  0  0  0  0  0  0  0  0  0  0
    0.6652   -1.1508    0.0000 C   0  0  0  0  0  0  0  0  0  0  0  0
    1.9956   -1.1508    0.0000 C   0  0  0  0  0  0  0  0  0  0  0  0
    3.3260   -1.1508    0.0000 N   0  0  0  0  0  0  0  0  0  0  0  0
  1  2  1  0  0  0  0 
  2  3  1  0  0  0  0 
  3  4  3  0  0  0  0 
M  END
> <Name>
Acetonitrile, bromo-

> <Source>
DSSTox2DMolFile

> <Tox>
5.229

> <CAS>
590-17-0

$$$$

  CDK

  6  5  0  0  0  0  0  0  0  0999 V2000
    3.4563   -0.0000    0.0000 C   0  0  0  0  0  0  0  0  0  0  0  0
    3.4563   -1.3318    0.0000 C   0  0  0  0  0  0  0  0  0  0  0  0
    4.6084   -1.9954    0.0000 C   0  0  0  0  0  0  0  0  0  0  0  0
    2.3042   -1.9954    0.0000 C   0  0  0  0  0  0  0  0  0  0  0  0
    1.1521   -1.3318    0.0000 C   0  0  0  0  0  0  0  0  0  0  0  0
    0.0000   -1.9954    0.0000 O   0  0  0  0  0  0  0  0  0  0  0  0
  1  2  1  0  0  0  0 
  2  3  1  0  0  0  0 
  2  4  1  0  0  0  0 
  4  5  1  0  0  0  0 
  5  6  2  0  0  0  0 
M  END
> <Name>
Butyraldehyde, 3-methyl-

> <Source>
DSSTox2DMolFile

> <Tox>
2.670

> <CAS>
590-86-3

$$$$

  CDK

  6  5  0  0  0  0  0  0  0  0999 V2000
    1.7391    1.4906    0.0000 C   0  0  0  0  0  0  0  0  0  0  0  0
    0.8944    0.9938    0.0000 C   0  0  0  0  0  0  0  0  0  0  0  0
    2.5838    0.9938    0.0000 C   0  0  0  0  0  0  0  0  0  0  0  0
    0.8944    0.0000    0.0000 O   0  0  0  0  0  0  0  0  0  0  0  0
    0.0000    1.4906    0.0000 O   0  0  0  0  0  0  0  0  0  0  0  0
    3.4781    1.4906    0.0000 Br  0  0  0  0  0  0  0  0  0  0  0  0
  1  2  1  0  0  0  0 
  1  3  1  0  0  0  0 
  2  4  1  0  0  0  0 
  2  5  2  0  0  0  0 
  3  6  1  0  0  0  0 
M  END
> <Name>
Propanoic acid, 3-bromo-

> <Source>
NIST2DMolFile

> <Tox>
2.956

> <CAS>
590-92-1

$$$$

  CDK

  8  8  0  0  0  0  0  0  0  0999 V2000
    1.5046    2.6080    0.0000 C   0  0  0  0  0  0  0  0  0  0  0  0
    1.0031    1.7554    0.0000 C   0  0  0  0  0  0  0  0  0  0  0  0
    2.5077    2.6080    0.0000 C   0  0  0  0  0  0  0  0  0  0  0  0
    1.5046    0.9028    0.0000 C   0  0  0  0  0  0  0  0  0  0  0  0
    0.0000    1.7554    0.0000 O   0  0  0  0  0  0  0  0  0  0  0  0
    3.0092    1.7554    0.0000 C   0  0  0  0  0  0  0  0  0  0  0  0
    2.5077    0.8526    0.0000 C   0  0  0  0  0  0  0  0  0  0  0  0
    3.0092    0.0000    0.0000 Br  0  0  0  0  0  0  0  0  0  0  0  0
  1  2  2  0  0  0  0 
  3  1  1  0  0  0  0 
  2  4  1  0  0  0  0 
  2  5  1  0  0  0  0 
  6  3  2  0  0  0  0 
  4  7  2  0  0  0  0 
  7  6  1  0  0  0  0 
  7  8  1  0  0  0  0 
M  END
> <Name>
Phenol, 3-bromo-

> <Source>
NIST2DMolFile

> <Tox>
4.150

> <CAS>
591-20-8

$$$$

  CDK

  8  8  0  0  0  0  0  0  0  0999 V2000
    0.0000   -2.6588    0.0000 O   0  0  0  0  0  0  0  0  0  0  0  0
    1.1520   -1.9953    0.0000 C   0  0  0  0  0  0  0  0  0  0  0  0
    1.1520   -0.6635    0.0000 C   0  0  0  0  0  0  0  0  0  0  0  0
    2.3040   -2.6588    0.0000 C   0  0  0  0  0  0  0  0  0  0  0  0
    2.3040   -0.0000    0.0000 C   0  0  0  0  0  0  0  0  0  0  0  0
    3.4560   -1.9953    0.0000 C   0  0  0  0  0  0  0  0  0  0  0  0
    3.4560   -0.6635    0.0000 C   0  0  0  0  0  0  0  0  0  0  0  0
    4.6080   -2.6588    0.0000 N   0  0  0  0  0  0  0  0  0  0  0  0
  1  2  1  0  0  0  0 
  2  3  2  0  0  0  0 
  2  4  1  0  0  0  0 
  3  5  1  0  0  0  0 
  6  4  2  0  0  0  0 
  5  7  2  0  0  0  0 
  7  6  1  0  0  0  0 
  6  8  1  0  0  0  0 
M  END
> <Name>
Phenol, 3-amino-

> <Source>
DSSTox2DMolFile

> <Tox>
2.480

> <CAS>
591-27-5

$$$$

  CDK

 10 10  0  0  0  0  0  0  0  0999 V2000
    5.2125    1.5036    0.0000 O   0  0  0  0  0  0  0  0  0  0  0  0
    4.3604    2.0048    0.0000 C   0  0  0  0  0  0  0  0  0  0  0  0
    3.4583    1.5036    0.0000 C   0  0  0  0  0  0  0  0  0  0  0  0
    2.6062    2.0048    0.0000 C   0  0  0  0  0  0  0  0  0  0  0  0
    3.4583    0.5012    0.0000 C   0  0  0  0  0  0  0  0  0  0  0  0
    1.7542    1.5036    0.0000 C   0  0  0  0  0  0  0  0  0  0  0  0
    2.6062    0.0000    0.0000 C   0  0  0  0  0  0  0  0  0  0  0  0
    0.8520    2.0048    0.0000 O   0  0  0  0  0  0  0  0  0  0  0  0
    1.7542    0.5012    0.0000 C   0  0  0  0  0  0  0  0  0  0  0  0
    0.0000    1.5036    0.0000 C   0  0  0  0  0  0  0  0  0  0  0  0
  1  2  2  0  0  0  0 
  2  3  1  0  0  0  0 
  4  3  2  0  0  0  0 
  3  5  1  0  0  0  0 
  6  4  1  0  0  0  0 
  5  7  2  0  0  0  0 
  6  8  1  0  0  0  0 
  9  6  2  0  0  0  0 
  7  9  1  0  0  0  0 
  8 10  1  0  0  0  0 
M  END
> <Name>
Benzaldehyde, 3-methoxy-

> <Source>
NIST2DMolFile

> <Tox>
3.230

> <CAS>
591-31-1

$$$$

  CDK

  9  9  0  0  0  0  0  0  0  0999 V2000
    1.3315   -2.3037    0.0000 C   0  0  0  0  0  0  0  0  0  0  0  0
    1.9950   -1.1518    0.0000 C   0  0  0  0  0  0  0  0  0  0  0  0
    1.9950   -3.4555    0.0000 C   0  0  0  0  0  0  0  0  0  0  0  0
    0.0000   -2.3037    0.0000 O   0  0  0  0  0  0  0  0  0  0  0  0
    3.3265   -1.1518    0.0000 C   0  0  0  0  0  0  0  0  0  0  0  0
    3.3265   -3.4555    0.0000 C   0  0  0  0  0  0  0  0  0  0  0  0
    3.9899   -2.3037    0.0000 C   0  0  0  0  0  0  0  0  0  0  0  0
    3.9899   -0.0000    0.0000 Cl  0  0  0  0  0  0  0  0  0  0  0  0
    3.9899   -4.6073    0.0000 Cl  0  0  0  0  0  0  0  0  0  0  0  0
  1  2  1  0  0  0  0 
  1  3  2  0  0  0  0 
  1  4  1  0  0  0  0 
  2  5  2  0  0  0  0 
  6  3  1  0  0  0  0 
  5  7  1  0  0  0  0 
  5  8  1  0  0  0  0 
  7  6  2  0  0  0  0 
  6  9  1  0  0  0  0 
M  END
> <Name>
Phenol, 3,5-dichloro-

> <Source>
DSSTox2DMolFile

> <Tox>
4.560

> <CAS>
591-35-5

$$$$

  CDK

  7  7  0  0  0  0  0  0  0  0999 V2000
    0.7009    0.0000    0.0000 C   0  0  0  0  0  0  0  0  0  0  0  0
    1.3549   -1.2169    0.0000 C   0  0  0  0  0  0  0  0  0  0  0  0
    1.3550    1.2169    0.0000 C   0  0  0  0  0  0  0  0  0  0  0  0
   -1.2694    0.0000    0.0000 I   0  0  0  0  0  0  0  0  0  0  0  0
    2.7485   -1.2099    0.0000 C   0  0  0  0  0  0  0  0  0  0  0  0
    2.7485    1.2099    0.0000 C   0  0  0  0  0  0  0  0  0  0  0  0
    3.4386    0.0000    0.0000 C   0  0  0  0  0  0  0  0  0  0  0  0
  1  2  1  0  0  0  0 
  1  3  2  0  0  0  0 
  1  4  1  0  0  0  0 
  2  5  2  0  0  0  0 
  6  3  1  0  0  0  0 
  5  7  1  0  0  0  0 
  7  6  2  0  0  0  0 
M  END
> <Name>
Benzene, iodo-

> <Source>
DougDB3DMolFile

> <Tox>
3.360

> <CAS>
591-50-4

$$$$

  CDK

  7  6  0  0  0  0  0  0  0  0999 V2000
    0.0000   -1.3314    0.0000 C   0  0  0  0  0  0  0  0  0  0  0  0
    1.1527   -1.9942    0.0000 C   0  0  0  0  0  0  0  0  0  0  0  0
    2.3055   -1.3314    0.0000 C   0  0  0  0  0  0  0  0  0  0  0  0
    3.4582   -1.9942    0.0000 C   0  0  0  0  0  0  0  0  0  0  0  0
    4.6110   -1.3314    0.0000 C   0  0  0  0  0  0  0  0  0  0  0  0
    4.6110   -0.0000    0.0000 O   0  0  0  0  0  0  0  0  0  0  0  0
    5.7637   -1.9942    0.0000 C   0  0  0  0  0  0  0  0  0  0  0  0
  1  2  1  0  0  0  0 
  2  3  1  0  0  0  0 
  3  4  1  0  0  0  0 
  4  5  1  0  0  0  0 
  5  6  2  0  0  0  0 
  5  7  1  0  0  0  0 
M  END
> <Name>
2-Hexanone

> <Source>
DSSTox2DMolFile

> <Tox>
1.657

> <CAS>
591-78-6

$$$$

  CDK

  7  6  0  0  0  0  0  0  0  0999 V2000
    4.6110   -1.3314    0.0000 C   0  0  0  0  0  0  0  0  0  0  0  0
    5.7637   -1.9942    0.0000 C   0  0  0  0  0  0  0  0  0  0  0  0
    4.6110   -0.0000    0.0000 O   0  0  0  0  0  0  0  0  0  0  0  0
    3.4582   -1.9942    0.0000 O   0  0  0  0  0  0  0  0  0  0  0  0
    2.3055   -1.3314    0.0000 C   0  0  0  0  0  0  0  0  0  0  0  0
    1.1527   -1.9942    0.0000 C   0  0  0  0  0  0  0  0  0  0  0  0
    0.0000   -1.3314    0.0000 C   0  0  0  0  0  0  0  0  0  0  0  0
  1  2  1  0  0  0  0 
  1  3  2  0  0  0  0 
  1  4  1  0  0  0  0 
  4  5  1  0  0  0  0 
  5  6  1  0  0  0  0 
  6  7  2  0  0  0  0 
M  END
> <Name>
Acetic acid, 2-propenyl ester

> <Source>
DSSTox2DMolFile

> <Tox>
3.480

> <CAS>
591-87-7

$$$$

  CDK

  8  7  0  0  0  0  0  0  0  0999 V2000
    0.0000    0.0000    0.0000 N   0  0  0  0  0  0  0  0  0  0  0  0
    0.8671    0.4591    0.0000 C   0  0  0  0  0  0  0  0  0  0  0  0
    1.7343    0.0000    0.0000 O   0  0  0  0  0  0  0  0  0  0  0  0
    0.8671    1.4282    0.0000 O   0  0  0  0  0  0  0  0  0  0  0  0
    2.6014    0.5101    0.0000 C   0  0  0  0  0  0  0  0  0  0  0  0
    3.4686    0.0000    0.0000 C   0  0  0  0  0  0  0  0  0  0  0  0
    4.3357    0.5101    0.0000 C   0  0  0  0  0  0  0  0  0  0  0  0
    5.2539    0.0000    0.0000 C   0  0  0  0  0  0  0  0  0  0  0  0
  1  2  1  0  0  0  0 
  2  3  1  0  0  0  0 
  2  4  2  0  0  0  0 
  3  5  1  0  0  0  0 
  5  6  1  0  0  0  0 
  6  7  1  0  0  0  0 
  7  8  1  0  0  0  0 
M  END
> <Name>
Carbamic acid, butyl ester

> <Source>
NIST2DMolFile

> <Tox>
2.034

> <CAS>
592-35-8

$$$$

  CDK

  7  6  0  0  0  0  0  0  0  0999 V2000
    2.6112    2.0086    0.0000 C   0  0  0  0  0  0  0  0  0  0  0  0
    1.7576    2.5108    0.0000 C   0  0  0  0  0  0  0  0  0  0  0  0
    2.6112    1.0043    0.0000 N   0  0  0  0  0  0  0  0  0  0  0  0
    0.8537    2.0086    0.0000 C   0  0  0  0  0  0  0  0  0  0  0  0
    3.4649    0.5022    0.0000 C   0  0  0  0  0  0  0  0  0  0  0  0
    0.0000    2.5108    0.0000 C   0  0  0  0  0  0  0  0  0  0  0  0
    4.3186    0.0000    0.0000 S   0  0  0  0  0  0  0  0  0  0  0  0
  1  2  1  0  0  0  0 
  1  3  1  0  0  0  0 
  2  4  1  0  0  0  0 
  3  5  2  0  0  0  0 
  4  6  1  0  0  0  0 
  5  7  2  0  0  0  0 
M  END
> <Name>
Isothiocyanic acid, butyl ester

> <Source>
NIST2DMolFile

> <Tox>
4.721

> <CAS>
592-82-5

$$$$

  CDK

 14 13  0  0  0  0  0  0  0  0999 V2000
    0.0000   -1.9918    0.0000 C   0  0  0  0  0  0  0  0  0  0  0  0
    1.1480   -1.3278    0.0000 C   0  0  0  0  0  0  0  0  0  0  0  0
    2.3099   -1.9918    0.0000 C   0  0  0  0  0  0  0  0  0  0  0  0
    3.4579   -1.3278    0.0000 C   0  0  0  0  0  0  0  0  0  0  0  0
    4.6059   -1.9918    0.0000 C   0  0  0  0  0  0  0  0  0  0  0  0
    5.7678   -1.3278    0.0000 C   0  0  0  0  0  0  0  0  0  0  0  0
    6.9158   -1.9918    0.0000 C   0  0  0  0  0  0  0  0  0  0  0  0
    8.0639   -1.3278    0.0000 C   0  0  0  0  0  0  0  0  0  0  0  0
    9.2257   -1.9918    0.0000 C   0  0  0  0  0  0  0  0  0  0  0  0
   10.3738   -1.3278    0.0000 C   0  0  0  0  0  0  0  0  0  0  0  0
   11.5218   -1.9918    0.0000 C   0  0  0  0  0  0  0  0  0  0  0  0
   12.6836   -1.3278    0.0000 C   0  0  0  0  0  0  0  0  0  0  0  0
   12.6836   -0.0000    0.0000 O   0  0  0  0  0  0  0  0  0  0  0  0
   13.8317   -1.9918    0.0000 C   0  0  0  0  0  0  0  0  0  0  0  0
  1  2  1  0  0  0  0 
  2  3  1  0  0  0  0 
  3  4  1  0  0  0  0 
  4  5  1  0  0  0  0 
  5  6  1  0  0  0  0 
  6  7  1  0  0  0  0 
  7  8  1  0  0  0  0 
  8  9  1  0  0  0  0 
  9 10  1  0  0  0  0 
 10 11  1  0  0  0  0 
 11 12  1  0  0  0  0 
 12 13  2  0  0  0  0 
 12 14  1  0  0  0  0 
M  END
> <Name>
2-Tridecanone

> <Source>
DSSTox2DMolFile

> <Tox>
5.119

> <CAS>
593-08-8

$$$$

  CDK

  6  5  0  0  0  0  0  0  0  0999 V2000
    0.5014    0.9526    0.0000 C   0  0  0  0  0  0  0  0  0  0  0  0
    1.5543    0.9526    0.0000 C   0  0  0  0  0  0  0  0  0  0  0  0
    0.0000    0.1003    0.0000 C   0  0  0  0  0  0  0  0  0  0  0  0
    1.5543    1.9554    0.0000 C   0  0  0  0  0  0  0  0  0  0  0  0
    1.5543    0.0000    0.0000 C   0  0  0  0  0  0  0  0  0  0  0  0
    2.5571    0.9526    0.0000 N   0  0  0  0  0  0  0  0  0  0  0  0
  1  2  1  0  0  0  0 
  1  3  1  0  0  0  0 
  2  4  1  0  0  0  0 
  2  5  1  0  0  0  0 
  2  6  1  0  0  0  0 
M  END
> <Name>
2-Butanamine, 2-methyl-

> <Source>
NIST2DMolFile

> <Tox>
2.302

> <CAS>
594-39-8

$$$$

  CDK

  7  6  0  0  0  0  0  0  0  0999 V2000
    0.0000   -1.9956    0.0000 Cl  0  0  0  0  0  0  0  0  0  0  0  0
    1.3304   -1.9956    0.0000 C   0  0  0  0  0  0  0  0  0  0  0  0
    2.6608   -1.9956    0.0000 Cl  0  0  0  0  0  0  0  0  0  0  0  0
    1.3304   -3.3260    0.0000 Cl  0  0  0  0  0  0  0  0  0  0  0  0
    1.3304   -0.6652    0.0000 C   0  0  0  0  0  0  0  0  0  0  0  0
    0.1796   -0.0000    0.0000 N   0  0  0  0  0  0  0  0  0  0  0  0
    2.4812   -0.0000    0.0000 O   0  0  0  0  0  0  0  0  0  0  0  0
  1  2  1  0  0  0  0 
  2  3  1  0  0  0  0 
  2  4  1  0  0  0  0 
  2  5  1  0  0  0  0 
  5  6  1  0  0  0  0 
  5  7  2  0  0  0  0 
M  END
> <Name>
2,2,2-trichloroacetamide

> <Source>
DSSTox2DMolFile

> <Tox>
2.712

> <CAS>
594-65-0

$$$$

  CDK

  7  6  0  0  0  0  0  0  0  0999 V2000
    2.4756    0.9902    0.0000 C   0  0  0  0  0  0  0  0  0  0  0  0
    1.4359    0.9902    0.0000 S   0  0  0  0  0  0  0  0  0  0  0  0
    2.9707    0.0990    0.0000 C   0  0  0  0  0  0  0  0  0  0  0  0
    0.4951    0.9902    0.0000 C   0  0  0  0  0  0  0  0  0  0  0  0
    1.4359    0.0000    0.0000 O   0  0  0  0  0  0  0  0  0  0  0  0
    1.4359    1.9805    0.0000 O   0  0  0  0  0  0  0  0  0  0  0  0
    0.0000    1.8815    0.0000 C   0  0  0  0  0  0  0  0  0  0  0  0
  1  2  1  0  0  0  0 
  1  3  1  0  0  0  0 
  2  4  1  0  0  0  0 
  2  5  2  0  0  0  0 
  2  6  2  0  0  0  0 
  4  7  1  0  0  0  0 
M  END
> <Name>
Ethyl sulfone (8CI)

> <Source>
NIST2DMolFile

> <Tox>
1.160

> <CAS>
597-35-3

$$$$

  CDK

 11 10  0  0  0  0  0  0  0  0999 V2000
    0.0000    1.0067    0.0000 C   0  0  0  0  0  0  0  0  0  0  0  0
    0.8054    1.5101    0.0000 C   0  0  0  0  0  0  0  0  0  0  0  0
    1.6611    1.0067    0.0000 C   0  0  0  0  0  0  0  0  0  0  0  0
    2.5671    1.5101    0.0000 C   0  0  0  0  0  0  0  0  0  0  0  0
    3.4228    1.0067    0.0000 S   0  0  0  0  0  0  0  0  0  0  0  0
    4.2785    1.5101    0.0000 C   0  0  0  0  0  0  0  0  0  0  0  0
    3.4228    2.0134    0.0000 O   0  0  0  0  0  0  0  0  0  0  0  0
    3.4228    0.0000    0.0000 O   0  0  0  0  0  0  0  0  0  0  0  0
    5.1846    1.0067    0.0000 C   0  0  0  0  0  0  0  0  0  0  0  0
    6.0403    1.5101    0.0000 C   0  0  0  0  0  0  0  0  0  0  0  0
    6.8960    1.0067    0.0000 C   0  0  0  0  0  0  0  0  0  0  0  0
  1  2  1  0  0  0  0 
  2  3  1  0  0  0  0 
  3  4  1  0  0  0  0 
  4  5  1  0  0  0  0 
  5  6  1  0  0  0  0 
  5  7  2  0  0  0  0 
  5  8  2  0  0  0  0 
  6  9  1  0  0  0  0 
  9 10  1  0  0  0  0 
 10 11  1  0  0  0  0 
M  END
> <Name>
Butyl sulfone (8CI)

> <Source>
NIST2DMolFile

> <Tox>
2.744

> <CAS>
598-04-9

$$$$

  CDK

  5  4  0  0  0  0  0  0  0  0999 V2000
    0.8443    1.5396    0.0000 C   0  0  0  0  0  0  0  0  0  0  0  0
    1.7382    0.9933    0.0000 C   0  0  0  0  0  0  0  0  0  0  0  0
    0.0000    1.0429    0.0000 C   0  0  0  0  0  0  0  0  0  0  0  0
    1.7382    0.0000    0.0000 C   0  0  0  0  0  0  0  0  0  0  0  0
    2.5825    1.4899    0.0000 O   0  0  0  0  0  0  0  0  0  0  0  0
  1  2  1  0  0  0  0 
  1  3  2  0  0  0  0 
  2  4  1  0  0  0  0 
  2  5  1  0  0  0  0 
M  END
> <Name>
3-Buten-2-ol

> <Source>
NIST2DMolFile

> <Tox>
1.947

> <CAS>
598-32-3

$$$$

  CDK

  5  4  0  0  0  0  0  0  0  0999 V2000
    2.3056   -1.3308    0.0000 C   0  0  0  0  0  0  0  0  0  0  0  0
    3.4567   -1.9945    0.0000 Cl  0  0  0  0  0  0  0  0  0  0  0  0
    2.3056   -0.0000    0.0000 Cl  0  0  0  0  0  0  0  0  0  0  0  0
    1.1511   -1.9945    0.0000 C   0  0  0  0  0  0  0  0  0  0  0  0
    0.0000   -1.3308    0.0000 O   0  0  0  0  0  0  0  0  0  0  0  0
  1  2  1  0  0  0  0 
  1  3  1  0  0  0  0 
  1  4  1  0  0  0  0 
  4  5  1  0  0  0  0 
M  END
> <Name>
Ethanol, 2,2-dichloro-

> <Source>
DSSTox2DMolFile

> <Tox>
2.010

> <CAS>
598-38-9

$$$$

  CDK

  5  4  0  0  0  0  0  0  0  0999 V2000
    1.7492    1.4993    0.0000 N   0  0  0  0  0  0  0  0  0  0  0  0
    0.8496    0.9995    0.0000 C   0  0  0  0  0  0  0  0  0  0  0  0
    2.5988    0.9995    0.0000 C   0  0  0  0  0  0  0  0  0  0  0  0
    0.8496    0.0000    0.0000 N   0  0  0  0  0  0  0  0  0  0  0  0
    0.0000    1.4993    0.0000 S   0  0  0  0  0  0  0  0  0  0  0  0
  1  2  1  0  0  0  0 
  1  3  1  0  0  0  0 
  2  4  1  0  0  0  0 
  2  5  2  0  0  0  0 
M  END
> <Name>
Pseudourea, 1-methyl-2-thio- (7CI)

> <Source>
NIST2DMolFile

> <Tox>
1.630

> <CAS>
598-52-7

$$$$

  CDK

  5  4  0  0  0  0  0  0  0  0999 V2000
    0.0000   -1.9945    0.0000 N   0  0  0  0  0  0  0  0  0  0  0  0
    1.1511   -1.3308    0.0000 C   0  0  0  0  0  0  0  0  0  0  0  0
    1.1511   -0.0000    0.0000 O   0  0  0  0  0  0  0  0  0  0  0  0
    2.3056   -1.9945    0.0000 O   0  0  0  0  0  0  0  0  0  0  0  0
    3.4567   -1.3308    0.0000 C   0  0  0  0  0  0  0  0  0  0  0  0
  1  2  1  0  0  0  0 
  2  3  2  0  0  0  0 
  2  4  1  0  0  0  0 
  4  5  1  0  0  0  0 
M  END
> <Name>
Carbamic acid, methyl ester

> <Source>
DSSTox2DMolFile

> <Tox>
1.025

> <CAS>
598-55-0

$$$$

  CDK

  5  4  0  0  0  0  0  0  0  0999 V2000
    1.1531   -2.0006    0.0000 C   0  0  0  0  0  0  0  0  0  0  0  0
    2.3035   -2.6569    0.0000 C   0  0  0  0  0  0  0  0  0  0  0  0
    1.1531   -0.6722    0.0000 N   0  0  0  0  0  0  0  0  0  0  0  0
    2.3035   -0.0000    0.0000 C   0  0  0  0  0  0  0  0  0  0  0  0
    0.0000   -0.0000    0.0000 C   0  0  0  0  0  0  0  0  0  0  0  0
  1  2  1  0  0  0  0 
  1  3  1  0  0  0  0 
  3  4  1  0  0  0  0 
  3  5  1  0  0  0  0 
M  END
> <Name>
Ethanamine, N,N-dimethyl-

> <Source>
DSSTox2DMolFile

> <Tox>
2.092

> <CAS>
598-56-1

$$$$

  CDK

  6  5  0  0  0  0  0  0  0  0999 V2000
    1.8697    1.9366    3.4047 C   0  0  0  0  0  0  0  0  0  0  0  0
    2.7381    1.9086    2.1212 C   0  0  0  0  0  0  0  0  0  0  0  0
    0.7084    2.9190    3.2433 C   0  0  0  0  0  0  0  0  0  0  0  0
    2.6174    2.2246    4.5639 O   0  0  0  0  0  0  0  0  0  0  0  0
    1.9102    1.4079    0.9480 C   0  0  0  0  0  0  0  0  0  0  0  0
    3.9659    1.0315    2.2964 C   0  0  0  0  0  0  0  0  0  0  0  0
  1  2  1  0  0  0  0 
  1  3  1  0  0  0  0 
  1  4  1  0  0  0  0 
  2  5  1  0  0  0  0 
  2  6  1  0  0  0  0 
M  END
> <Name>
2-Butanol, 3-methyl-

> <Source>
NIST3DMolFile

> <Tox>
2.004

> <CAS>
598-75-4

$$$$

  CDK

  8  7  0  0  0  0  0  0  0  0999 V2000
    1.9934   -1.3320    0.0000 C   0  0  0  0  0  0  0  0  0  0  0  0
    3.3254   -1.3320    0.0000 C   0  0  0  0  0  0  0  0  0  0  0  0
    1.3320   -2.4731    0.0000 O   0  0  0  0  0  0  0  0  0  0  0  0
    1.3320   -0.1770    0.0000 O   0  0  0  0  0  0  0  0  0  0  0  0
    4.6574   -1.3320    0.0000 C   0  0  0  0  0  0  0  0  0  0  0  0
    3.3254   -0.0000    0.0000 C   0  0  0  0  0  0  0  0  0  0  0  0
    3.3254   -2.6641    0.0000 C   0  0  0  0  0  0  0  0  0  0  0  0
    0.0000   -2.4731    0.0000 C   0  0  0  0  0  0  0  0  0  0  0  0
  1  2  1  0  0  0  0 
  1  3  1  0  0  0  0 
  1  4  2  0  0  0  0 
  2  5  1  0  0  0  0 
  2  6  1  0  0  0  0 
  2  7  1  0  0  0  0 
  3  8  1  0  0  0  0 
M  END
> <Name>
methyl 2,2-dimethylpropanoate

> <Source>
DSSTox2DMolFile

> <Tox>
1.720

> <CAS>
598-98-1

$$$$

  CDK

 11 11  0  0  0  0  0  0  0  0999 V2000
    0.5032    1.0063    0.0000 C   0  0  0  0  0  0  0  0  0  0  0  0
    1.5095    1.0063    0.0000 S   0  0  0  0  0  0  0  0  0  0  0  0
    0.0000    0.1510    0.0000 C   0  0  0  0  0  0  0  0  0  0  0  0
    1.5095    2.0127    0.0000 O   0  0  0  0  0  0  0  0  0  0  0  0
    1.5095    0.0000    0.0000 O   0  0  0  0  0  0  0  0  0  0  0  0
    2.5158    1.0063    0.0000 C   0  0  0  0  0  0  0  0  0  0  0  0
    3.0190    1.8617    0.0000 C   0  0  0  0  0  0  0  0  0  0  0  0
    3.0190    0.1510    0.0000 C   0  0  0  0  0  0  0  0  0  0  0  0
    4.0253    1.8617    0.0000 C   0  0  0  0  0  0  0  0  0  0  0  0
    4.0253    0.1510    0.0000 C   0  0  0  0  0  0  0  0  0  0  0  0
    4.5285    1.0063    0.0000 C   0  0  0  0  0  0  0  0  0  0  0  0
  1  2  1  0  0  0  0 
  1  3  1  0  0  0  0 
  2  4  2  0  0  0  0 
  2  5  2  0  0  0  0 
  2  6  1  0  0  0  0 
  7  6  2  0  0  0  0 
  6  8  1  0  0  0  0 
  9  7  1  0  0  0  0 
  8 10  2  0  0  0  0 
 11  9  2  0  0  0  0 
 10 11  1  0  0  0  0 
M  END
> <Name>
(Ethylsulphonyl)benzene

> <Source>
NIST2DMolFile

> <Tox>
2.210

> <CAS>
599-70-2

$$$$

  CDK

  9  8  0  0  0  0  0  0  0  0999 V2000
    1.7021    1.4018    0.0000 C   0  0  0  0  0  0  0  0  0  0  0  0
    0.8511    0.9011    0.0000 C   0  0  0  0  0  0  0  0  0  0  0  0
    2.6033    0.9011    0.0000 O   0  0  0  0  0  0  0  0  0  0  0  0
    1.7021    2.4030    0.0000 O   0  0  0  0  0  0  0  0  0  0  0  0
    0.3504    1.7522    0.0000 Br  0  0  0  0  0  0  0  0  0  0  0  0
    1.3517    0.0000    0.0000 C   0  0  0  0  0  0  0  0  0  0  0  0
    0.0000    0.4005    0.0000 C   0  0  0  0  0  0  0  0  0  0  0  0
    3.4544    1.4018    0.0000 C   0  0  0  0  0  0  0  0  0  0  0  0
    4.3054    0.9011    0.0000 C   0  0  0  0  0  0  0  0  0  0  0  0
  1  2  1  0  0  0  0 
  1  3  1  0  0  0  0 
  1  4  2  0  0  0  0 
  2  5  1  0  0  0  0 
  2  6  1  0  0  0  0 
  2  7  1  0  0  0  0 
  3  8  1  0  0  0  0 
  8  9  1  0  0  0  0 
M  END
> <Name>
Propanoic acid, 2-bromo-2-methyl-, ethyl ester

> <Source>
NIST2DMolFile

> <Tox>
3.152

> <CAS>
600-00-0

$$$$

  CDK

  8  7  0  0  0  0  0  0  0  0999 V2000
    0.0000   -3.4549    0.0000 C   0  0  0  0  0  0  0  0  0  0  0  0
    1.3313   -3.4549    0.0000 C   0  0  0  0  0  0  0  0  0  0  0  0
    1.9946   -4.6066    0.0000 C   0  0  0  0  0  0  0  0  0  0  0  0
    1.9946   -2.3033    0.0000 C   0  0  0  0  0  0  0  0  0  0  0  0
    3.3259   -2.3033    0.0000 O   0  0  0  0  0  0  0  0  0  0  0  0
    1.3313   -1.1516    0.0000 C   0  0  0  0  0  0  0  0  0  0  0  0
    0.0000   -1.1516    0.0000 C   0  0  0  0  0  0  0  0  0  0  0  0
    1.9946   -0.0000    0.0000 C   0  0  0  0  0  0  0  0  0  0  0  0
  1  2  1  0  0  0  0 
  2  3  1  0  0  0  0 
  2  4  1  0  0  0  0 
  4  5  1  0  0  0  0 
  4  6  1  0  0  0  0 
  6  7  1  0  0  0  0 
  6  8  1  0  0  0  0 
M  END
> <Name>
3-Pentanol, 2,4-dimethyl-

> <Source>
DSSTox2DMolFile

> <Tox>
2.295

> <CAS>
600-36-2

$$$$

  CDK

 11 11  0  0  0  0  0  0  0  0999 V2000
    0.0500    2.5996    0.0000 O   0  0  0  0  0  0  0  0  0  0  0  0
    0.4999    1.7497    0.0000 N   0  0  0  0  0  0  0  0  0  0  0  0
    0.0000    0.8999    0.0000 O   0  0  0  0  0  0  0  0  0  0  0  0
    1.5498    1.7497    0.0000 C   0  0  0  0  0  0  0  0  0  0  0  0
    2.0497    2.5996    0.0000 C   0  0  0  0  0  0  0  0  0  0  0  0
    2.0497    0.8999    0.0000 C   0  0  0  0  0  0  0  0  0  0  0  0
    1.5498    3.4995    0.0000 O   0  0  0  0  0  0  0  0  0  0  0  0
    3.0495    2.5996    0.0000 C   0  0  0  0  0  0  0  0  0  0  0  0
    1.5498    0.0000    0.0000 O   0  0  0  0  0  0  0  0  0  0  0  0
    3.0495    0.8999    0.0000 C   0  0  0  0  0  0  0  0  0  0  0  0
    3.5495    1.7497    0.0000 C   0  0  0  0  0  0  0  0  0  0  0  0
  1  2  2  0  0  0  0 
  2  3  2  0  0  0  0 
  2  4  1  0  0  0  0 
  5  4  2  0  0  0  0 
  4  6  1  0  0  0  0 
  5  7  1  0  0  0  0 
  8  5  1  0  0  0  0 
  6  9  1  0  0  0  0 
  6 10  2  0  0  0  0 
 11  8  2  0  0  0  0 
 10 11  1  0  0  0  0 
M  END
> <Name>
1,3-Benzenediol, 2-nitro-

> <Source>
NIST2DMolFile

> <Tox>
3.660

> <CAS>
601-89-8

$$$$

  CDK

 13 13  0  0  0  0  0  0  0  0999 V2000
    4.3664    3.0113    0.0000 O   0  0  0  0  0  0  0  0  0  0  0  0
    4.3664    2.0577    0.0000 N   0  0  0  0  0  0  0  0  0  0  0  0
    5.2196    1.5558    0.0000 O   0  0  0  0  0  0  0  0  0  0  0  0
    3.4630    1.5056    0.0000 C   0  0  0  0  0  0  0  0  0  0  0  0
    2.6098    2.0075    0.0000 C   0  0  0  0  0  0  0  0  0  0  0  0
    3.4630    0.5019    0.0000 C   0  0  0  0  0  0  0  0  0  0  0  0
    2.6098    3.0113    0.0000 N   0  0  0  0  0  0  0  0  0  0  0  0
    1.7566    1.5056    0.0000 C   0  0  0  0  0  0  0  0  0  0  0  0
    2.6098    0.0000    0.0000 C   0  0  0  0  0  0  0  0  0  0  0  0
    0.8532    2.0075    0.0000 N   0  0  0  0  0  0  0  0  0  0  0  0
    1.7566    0.5019    0.0000 C   0  0  0  0  0  0  0  0  0  0  0  0
    0.8532    3.0113    0.0000 O   0  0  0  0  0  0  0  0  0  0  0  0
    0.0000    1.5056    0.0000 O   0  0  0  0  0  0  0  0  0  0  0  0
  1  2  2  0  0  0  0 
  2  3  2  0  0  0  0 
  2  4  1  0  0  0  0 
  5  4  2  0  0  0  0 
  4  6  1  0  0  0  0 
  5  7  1  0  0  0  0 
  8  5  1  0  0  0  0 
  6  9  2  0  0  0  0 
  8 10  1  0  0  0  0 
 11  8  2  0  0  0  0 
  9 11  1  0  0  0  0 
 10 12  2  0  0  0  0 
 10 13  2  0  0  0  0 
M  END
> <Name>
Benzenamine, 2,6-dinitro- (9CI)

> <Source>
NIST2DMolFile

> <Tox>
3.840

> <CAS>
606-22-4

$$$$

  CDK

 14 15  0  0  0  0  0  0  0  0999 V2000
   -0.9217   -2.0479    0.0006 O   0  0  0  0  0  0  0  0  0  0  0  0
   -0.5064   -0.7441   -0.0005 C   0  0  0  0  0  0  0  0  0  0  0  0
    0.8639   -0.4367   -0.0002 C   0  0  0  0  0  0  0  0  0  0  0  0
   -1.4639    0.2708   -0.0002 C   0  0  0  0  0  0  0  0  0  0  0  0
    1.2688    0.9194    0.0001 C   0  0  0  0  0  0  0  0  0  0  0  0
    1.8413   -1.4451   -0.0003 C   0  0  0  0  0  0  0  0  0  0  0  0
   -2.8531   -0.0354    0.0002 N   0  0  0  0  0  0  0  0  0  0  0  0
   -1.0657    1.6044   -0.0003 C   0  0  0  0  0  0  0  0  0  0  0  0
    0.2915    1.9281   -0.0001 C   0  0  0  0  0  0  0  0  0  0  0  0
    2.6391    1.2270    0.0002 C   0  0  0  0  0  0  0  0  0  0  0  0
    3.1983   -1.1213    0.0000 C   0  0  0  0  0  0  0  0  0  0  0  0
   -3.6806    0.9061    0.0004 O   0  0  0  0  0  0  0  0  0  0  0  0
   -3.2081   -1.2376   -0.0002 O   0  0  0  0  0  0  0  0  0  0  0  0
    3.5965    0.2123    0.0004 C   0  0  0  0  0  0  0  0  0  0  0  0
  1  2  1  0  0  0  0 
  3  2  1  0  0  0  0 
  2  4  2  0  0  0  0 
  3  5  1  0  0  0  0 
  3  6  2  0  0  0  0 
  7  4  1  0  0  0  0 
  4  8  1  0  0  0  0 
  5  9  1  0  0  0  0 
  5 10  2  0  0  0  0 
  6 11  1  0  0  0  0 
 12  7  1  0  0  0  0 
 13  7  2  0  0  0  0 
  9  8  2  0  0  0  0 
 10 14  1  0  0  0  0 
 11 14  2  0  0  0  0 
M  CHG  1   7   1
M  CHG  1  12  -1
M  END
> <Name>
2-nitronaphthalen-1-ol

> <Source>
Chemidplus3DMolFile

> <Tox>
4.360

> <CAS>
607-24-9

$$$$

  CDK

 13 14  0  0  0  0  0  0  0  0999 V2000
   -3.3458   -0.3941    0.0006 O   0  0  0  0  0  0  0  0  0  0  0  0
   -2.1587   -0.7918    0.0002 N   0  0  0  0  0  0  0  0  0  0  0  0
   -1.8564   -2.0068   -0.0003 O   0  0  0  0  0  0  0  0  0  0  0  0
   -1.1113    0.1755   -0.0003 C   0  0  0  0  0  0  0  0  0  0  0  0
    0.2453   -0.1907   -0.0002 C   0  0  0  0  0  0  0  0  0  0  0  0
   -1.4784    1.5182   -0.0003 C   0  0  0  0  0  0  0  0  0  0  0  0
    1.2504    0.7992    0.0000 C   0  0  0  0  0  0  0  0  0  0  0  0
    0.6428   -1.5345   -0.0002 C   0  0  0  0  0  0  0  0  0  0  0  0
   -0.4937    2.4983   -0.0001 C   0  0  0  0  0  0  0  0  0  0  0  0
    2.5592    0.4827    0.0002 N   0  0  0  0  0  0  0  0  0  0  0  0
    0.8551    2.1339    0.0001 C   0  0  0  0  0  0  0  0  0  0  0  0
    1.9906   -1.8637    0.0000 C   0  0  0  0  0  0  0  0  0  0  0  0
    2.9008   -0.8262    0.0002 C   0  0  0  0  0  0  0  0  0  0  0  0
  1  2  1  0  0  0  0 
  3  2  2  0  0  0  0 
  2  4  1  0  0  0  0 
  5  4  1  0  0  0  0 
  4  6  2  0  0  0  0 
  5  7  2  0  0  0  0 
  5  8  1  0  0  0  0 
  6  9  1  0  0  0  0 
 10  7  1  0  0  0  0 
  7 11  1  0  0  0  0 
  8 12  2  0  0  0  0 
 11  9  2  0  0  0  0 
 10 13  2  0  0  0  0 
 12 13  1  0  0  0  0 
M  CHG  1   1  -1
M  CHG  1   2   1
M  END
> <Name>
5-nitroquinoline

> <Source>
Chemidplus3DMolFile

> <Tox>
3.390

> <CAS>
607-34-1

$$$$

  CDK

 13 14  0  0  0  0  0  0  0  0999 V2000
    2.3040   -0.0000    0.0000 O   0  0  0  0  0  0  0  0  0  0  0  0
    3.4536   -0.6656    0.0000 N   0  0  0  0  0  0  0  0  0  0  0  0
    3.4536   -1.9968    0.0000 C   0  0  0  0  0  0  0  0  0  0  0  0
    4.6080   -0.0000    0.0000 O   0  0  0  0  0  0  0  0  0  0  0  0
    4.6080   -2.6577    0.0000 C   0  0  0  0  0  0  0  0  0  0  0  0
    2.3040   -2.6577    0.0000 C   0  0  0  0  0  0  0  0  0  0  0  0
    4.6080   -3.9889    0.0000 C   0  0  0  0  0  0  0  0  0  0  0  0
    2.3040   -3.9889    0.0000 C   0  0  0  0  0  0  0  0  0  0  0  0
    1.1497   -1.9968    0.0000 N   0  0  0  0  0  0  0  0  0  0  0  0
    3.4536   -4.6545    0.0000 C   0  0  0  0  0  0  0  0  0  0  0  0
    1.1497   -4.6545    0.0000 C   0  0  0  0  0  0  0  0  0  0  0  0
    0.0000   -2.6577    0.0000 C   0  0  0  0  0  0  0  0  0  0  0  0
    0.0000   -3.9889    0.0000 C   0  0  0  0  0  0  0  0  0  0  0  0
  1  2  2  0  0  0  0 
  2  3  1  0  0  0  0 
  2  4  1  0  0  0  0 
  3  5  2  0  0  0  0 
  3  6  1  0  0  0  0 
  5  7  1  0  0  0  0 
  8  6  1  0  0  0  0 
  9  6  2  0  0  0  0 
  7 10  2  0  0  0  0 
 10  8  1  0  0  0  0 
  8 11  2  0  0  0  0 
 12  9  1  0  0  0  0 
 11 13  1  0  0  0  0 
 13 12  2  0  0  0  0 
M  CHG  1   2   1
M  CHG  1   4  -1
M  END
> <Name>
Quinoline, 8-nitro-

> <Source>
DSSTox2DMolFile

> <Tox>
3.080

> <CAS>
607-35-2

$$$$

  CDK

 18 18  0  0  0  0  0  0  0  0999 V2000
    0.0000   -4.6108    0.0000 C   0  0  0  0  0  0  0  0  0  0  0  0
    0.6661   -5.7613    0.0000 C   0  0  0  0  0  0  0  0  0  0  0  0
    1.9983   -5.7613    0.0000 O   0  0  0  0  0  0  0  0  0  0  0  0
    2.6644   -4.6108    0.0000 C   0  0  0  0  0  0  0  0  0  0  0  0
    1.9983   -3.4516    0.0000 O   0  0  0  0  0  0  0  0  0  0  0  0
    3.9966   -4.6108    0.0000 C   0  0  0  0  0  0  0  0  0  0  0  0
    4.6541   -5.7613    0.0000 C   0  0  0  0  0  0  0  0  0  0  0  0
    4.6541   -3.4516    0.0000 C   0  0  0  0  0  0  0  0  0  0  0  0
    5.9863   -5.7613    0.0000 C   0  0  0  0  0  0  0  0  0  0  0  0
    5.9863   -3.4516    0.0000 O   0  0  0  0  0  0  0  0  0  0  0  0
    3.9966   -2.3011    0.0000 O   0  0  0  0  0  0  0  0  0  0  0  0
    6.6524   -4.6108    0.0000 C   0  0  0  0  0  0  0  0  0  0  0  0
    6.6524   -6.9119    0.0000 C   0  0  0  0  0  0  0  0  0  0  0  0
    4.6541   -1.1505    0.0000 C   0  0  0  0  0  0  0  0  0  0  0  0
    7.9846   -4.6108    0.0000 C   0  0  0  0  0  0  0  0  0  0  0  0
    7.9846   -6.9119    0.0000 C   0  0  0  0  0  0  0  0  0  0  0  0
    3.9966   -0.0000    0.0000 C   0  0  0  0  0  0  0  0  0  0  0  0
    8.6507   -5.7613    0.0000 C   0  0  0  0  0  0  0  0  0  0  0  0
  1  2  1  0  0  0  0 
  2  3  1  0  0  0  0 
  3  4  1  0  0  0  0 
  4  5  2  0  0  0  0 
  4  6  1  0  0  0  0 
  6  7  1  0  0  0  0 
  6  8  1  0  0  0  0 
  7  9  1  0  0  0  0 
  8 10  2  0  0  0  0 
  8 11  1  0  0  0  0 
  9 12  2  0  0  0  0 
  9 13  1  0  0  0  0 
 11 14  1  0  0  0  0 
 12 15  1  0  0  0  0 
 16 13  2  0  0  0  0 
 14 17  1  0  0  0  0 
 15 18  2  0  0  0  0 
 18 16  1  0  0  0  0 
M  END
> <Name>
Propanedioic acid, (phenylmethyl)-, diethyl ester

> <Source>
DSSTox2DMolFile

> <Tox>
3.710

> <CAS>
607-81-8

$$$$

  CDK

 10 10  0  0  0  0  0  0  0  0999 V2000
    2.4628    0.8722    0.0000 C   0  0  0  0  0  0  0  0  0  0  0  0
    1.4879    0.8722    0.0000 C   0  0  0  0  0  0  0  0  0  0  0  0
    2.9759    1.6932    0.0000 C   0  0  0  0  0  0  0  0  0  0  0  0
    2.9759    0.0000    0.0000 C   0  0  0  0  0  0  0  0  0  0  0  0
    1.0262    1.6932    0.0000 C   0  0  0  0  0  0  0  0  0  0  0  0
    1.0262    0.0000    0.0000 C   0  0  0  0  0  0  0  0  0  0  0  0
    2.4628    2.6167    0.0000 C   0  0  0  0  0  0  0  0  0  0  0  0
    4.0021    1.6932    0.0000 O   0  0  0  0  0  0  0  0  0  0  0  0
    1.4879    2.6167    0.0000 C   0  0  0  0  0  0  0  0  0  0  0  0
    0.0000    1.6932    0.0000 O   0  0  0  0  0  0  0  0  0  0  0  0
  2  1  2  0  0  0  0 
  1  3  1  0  0  0  0 
  1  4  1  0  0  0  0 
  5  2  1  0  0  0  0 
  2  6  1  0  0  0  0 
  3  7  2  0  0  0  0 
  3  8  1  0  0  0  0 
  9  5  2  0  0  0  0 
  5 10  1  0  0  0  0 
  7  9  1  0  0  0  0 
M  END
> <Name>
Hydroquinone, 2,3-dimethyl- (8CI)

> <Source>
NIST2DMolFile

> <Tox>
4.410

> <CAS>
608-43-5

$$$$

  CDK

 12 12  0  0  0  0  0  0  0  0999 V2000
    0.0000   -2.3036    0.0000 O   0  0  0  0  0  0  0  0  0  0  0  0
    1.3300   -2.3036    0.0000 C   0  0  0  0  0  0  0  0  0  0  0  0
    1.9950   -1.1491    0.0000 C   0  0  0  0  0  0  0  0  0  0  0  0
    1.9950   -3.4580    0.0000 C   0  0  0  0  0  0  0  0  0  0  0  0
    1.3300   -0.0000    0.0000 Br  0  0  0  0  0  0  0  0  0  0  0  0
    3.3250   -1.1491    0.0000 C   0  0  0  0  0  0  0  0  0  0  0  0
    3.3250   -3.4580    0.0000 C   0  0  0  0  0  0  0  0  0  0  0  0
    1.3300   -4.6072    0.0000 Br  0  0  0  0  0  0  0  0  0  0  0  0
    3.9901   -0.0000    0.0000 Br  0  0  0  0  0  0  0  0  0  0  0  0
    3.9901   -2.3036    0.0000 C   0  0  0  0  0  0  0  0  0  0  0  0
    3.9901   -4.6072    0.0000 Br  0  0  0  0  0  0  0  0  0  0  0  0
    5.3201   -2.3036    0.0000 Br  0  0  0  0  0  0  0  0  0  0  0  0
  1  2  1  0  0  0  0 
  2  3  2  0  0  0  0 
  2  4  1  0  0  0  0 
  3  5  1  0  0  0  0 
  3  6  1  0  0  0  0 
  7  4  2  0  0  0  0 
  4  8  1  0  0  0  0 
  6  9  1  0  0  0  0 
  6 10  2  0  0  0  0 
 10  7  1  0  0  0  0 
  7 11  1  0  0  0  0 
 10 12  1  0  0  0  0 
M  END
> <Name>
Phenol, pentabromo-

> <Source>
DSSTox2DMolFile

> <Tox>
5.660

> <CAS>
608-71-9

$$$$

  CDK

 12 11  0  0  0  0  0  0  0  0999 V2000
    1.7182    0.9602    0.0000 O   0  0  0  0  0  0  0  0  0  0  0  0
    2.6279    1.4655    0.0000 C   0  0  0  0  0  0  0  0  0  0  0  0
    0.8591    1.4655    0.0000 C   0  0  0  0  0  0  0  0  0  0  0  0
    2.6279    2.4763    0.0000 O   0  0  0  0  0  0  0  0  0  0  0  0
    3.4870    0.9602    0.0000 C   0  0  0  0  0  0  0  0  0  0  0  0
    0.0000    0.9602    0.0000 C   0  0  0  0  0  0  0  0  0  0  0  0
    4.2956    1.4655    0.0000 C   0  0  0  0  0  0  0  0  0  0  0  0
    3.4870    0.0000    0.0000 C   0  0  0  0  0  0  0  0  0  0  0  0
    5.2052    0.9602    0.0000 O   0  0  0  0  0  0  0  0  0  0  0  0
    4.2956    2.4763    0.0000 O   0  0  0  0  0  0  0  0  0  0  0  0
    6.0643    1.4655    0.0000 C   0  0  0  0  0  0  0  0  0  0  0  0
    6.9235    0.9602    0.0000 C   0  0  0  0  0  0  0  0  0  0  0  0
  1  2  1  0  0  0  0 
  1  3  1  0  0  0  0 
  2  4  2  0  0  0  0 
  2  5  1  0  0  0  0 
  3  6  1  0  0  0  0 
  5  7  1  0  0  0  0 
  5  8  1  0  0  0  0 
  7  9  1  0  0  0  0 
  7 10  2  0  0  0  0 
  9 11  1  0  0  0  0 
 11 12  1  0  0  0  0 
M  END
> <Name>
Malonic acid, methyl-, diethyl ester (8CI)

> <Source>
NIST2DMolFile

> <Tox>
2.489

> <CAS>
609-08-5

$$$$

  CDK

 10  9  0  0  0  0  0  0  0  0999 V2000
    1.7026    1.3521    0.0000 C   0  0  0  0  0  0  0  0  0  0  0  0
    2.5539    1.9029    0.0000 C   0  0  0  0  0  0  0  0  0  0  0  0
    1.7026    0.3505    0.0000 Br  0  0  0  0  0  0  0  0  0  0  0  0
    0.8012    1.8528    0.0000 C   0  0  0  0  0  0  0  0  0  0  0  0
    3.4052    1.4021    0.0000 O   0  0  0  0  0  0  0  0  0  0  0  0
    2.5038    2.9044    0.0000 O   0  0  0  0  0  0  0  0  0  0  0  0
    0.8012    2.8543    0.0000 C   0  0  0  0  0  0  0  0  0  0  0  0
    0.0000    1.3020    0.0000 Br  0  0  0  0  0  0  0  0  0  0  0  0
    3.4552    0.4006    0.0000 C   0  0  0  0  0  0  0  0  0  0  0  0
    4.3566    0.0000    0.0000 C   0  0  0  0  0  0  0  0  0  0  0  0
  1  2  1  0  0  0  0 
  1  3  1  0  0  0  0 
  1  4  1  0  0  0  0 
  2  5  1  0  0  0  0 
  2  6  2  0  0  0  0 
  4  7  1  0  0  0  0 
  4  8  1  0  0  0  0 
  5  9  1  0  0  0  0 
  9 10  1  0  0  0  0 
M  END
> <Name>
Butyric acid, 2,3-dibromo-, ethyl ester (8CI)

> <Source>
NIST2DMolFile

> <Tox>
4.438

> <CAS>
609-11-0

$$$$

  CDK

 10  9  0  0  0  0  0  0  0  0999 V2000
    2.5989    1.4994    0.0000 C   0  0  0  0  0  0  0  0  0  0  0  0
    1.7493    0.9996    0.0000 C   0  0  0  0  0  0  0  0  0  0  0  0
    3.4486    0.9996    0.0000 O   0  0  0  0  0  0  0  0  0  0  0  0
    2.5989    2.4990    0.0000 O   0  0  0  0  0  0  0  0  0  0  0  0
    0.8496    1.4994    0.0000 C   0  0  0  0  0  0  0  0  0  0  0  0
    1.7493    0.0000    0.0000 Br  0  0  0  0  0  0  0  0  0  0  0  0
    4.3482    1.4994    0.0000 C   0  0  0  0  0  0  0  0  0  0  0  0
    0.8496    2.4990    0.0000 C   0  0  0  0  0  0  0  0  0  0  0  0
    0.0000    0.9996    0.0000 C   0  0  0  0  0  0  0  0  0  0  0  0
    5.1978    0.9996    0.0000 C   0  0  0  0  0  0  0  0  0  0  0  0
  1  2  1  0  0  0  0 
  1  3  1  0  0  0  0 
  1  4  2  0  0  0  0 
  2  5  1  0  0  0  0 
  2  6  1  0  0  0  0 
  3  7  1  0  0  0  0 
  5  8  1  0  0  0  0 
  5  9  1  0  0  0  0 
  7 10  1  0  0  0  0 
M  END
> <Name>
Butanoic acid, 2-bromo-3-methyl-, ethyl ester

> <Source>
NIST2DMolFile

> <Tox>
3.021

> <CAS>
609-12-1

$$$$

  CDK

 10 10  0  0  0  0  0  0  0  0999 V2000
    5.3182   -2.3028    0.0000 O   0  0  0  0  0  0  0  0  0  0  0  0
    3.9887   -2.3028    0.0000 C   0  0  0  0  0  0  0  0  0  0  0  0
    3.3239   -3.4568    0.0000 C   0  0  0  0  0  0  0  0  0  0  0  0
    3.3239   -1.1487    0.0000 C   0  0  0  0  0  0  0  0  0  0  0  0
    3.9887   -4.6056    0.0000 I   0  0  0  0  0  0  0  0  0  0  0  0
    1.9943   -3.4568    0.0000 C   0  0  0  0  0  0  0  0  0  0  0  0
    1.9943   -1.1487    0.0000 C   0  0  0  0  0  0  0  0  0  0  0  0
    3.9887   -0.0000    0.0000 I   0  0  0  0  0  0  0  0  0  0  0  0
    1.3296   -2.3028    0.0000 C   0  0  0  0  0  0  0  0  0  0  0  0
    0.0000   -2.3028    0.0000 I   0  0  0  0  0  0  0  0  0  0  0  0
  1  2  1  0  0  0  0 
  2  3  2  0  0  0  0 
  2  4  1  0  0  0  0 
  3  5  1  0  0  0  0 
  3  6  1  0  0  0  0 
  7  4  2  0  0  0  0 
  4  8  1  0  0  0  0 
  6  9  2  0  0  0  0 
  9  7  1  0  0  0  0 
  9 10  1  0  0  0  0 
M  END
> <Name>
Phenol, 2,4,6-triiodo-

> <Source>
DSSTox2DMolFile

> <Tox>
5.670

> <CAS>
609-23-4

$$$$

  CDK

  8  8  0  0  0  0  0  0  0  0999 V2000
   -0.6533    1.0777   -0.0023 O   0  0  0  0  0  0  0  0  0  0  0  0
    0.0126   -0.1067    0.0025 C   0  0  0  0  0  0  0  0  0  0  0  0
   -1.9789    0.7783   -0.0038 C   0  0  0  0  0  0  0  0  0  0  0  0
   -0.8732   -1.1590    0.0042 C   0  0  0  0  0  0  0  0  0  0  0  0
    1.4352   -0.0704    0.0047 C   0  0  0  0  0  0  0  0  0  0  0  0
   -2.1665   -0.5843    0.0002 C   0  0  0  0  0  0  0  0  0  0  0  0
    2.1415   -1.1139   -0.0076 O   0  0  0  0  0  0  0  0  0  0  0  0
    2.0825    1.1785    0.0021 N   0  0  0  0  0  0  0  0  0  0  0  0
  1  2  1  0  0  0  0 
  1  3  1  0  0  0  0 
  2  4  2  0  0  0  0 
  2  5  1  0  0  0  0 
  6  3  2  0  0  0  0 
  4  6  1  0  0  0  0 
  7  5  2  0  0  0  0 
  8  5  1  0  0  0  0 
M  END
> <Name>
furan-2-carboxamide

> <Source>
Chemidplus3DMolFile

> <Tox>
1.560

> <CAS>
609-38-1

$$$$

  CDK

 12 12  0  0  0  0  0  0  0  0999 V2000
    0.0499    0.8977    0.0000 O   0  0  0  0  0  0  0  0  0  0  0  0
    0.4987    1.7455    0.0000 N   0  0  0  0  0  0  0  0  0  0  0  0
    0.0000    2.5933    0.0000 O   0  0  0  0  0  0  0  0  0  0  0  0
    1.5460    1.7455    0.0000 C   0  0  0  0  0  0  0  0  0  0  0  0
    2.0447    0.8977    0.0000 C   0  0  0  0  0  0  0  0  0  0  0  0
    2.0447    2.5933    0.0000 C   0  0  0  0  0  0  0  0  0  0  0  0
    1.5460    0.0000    0.0000 O   0  0  0  0  0  0  0  0  0  0  0  0
    3.0421    0.8977    0.0000 C   0  0  0  0  0  0  0  0  0  0  0  0
    3.0421    2.5933    0.0000 C   0  0  0  0  0  0  0  0  0  0  0  0
    3.5408    0.0000    0.0000 Cl  0  0  0  0  0  0  0  0  0  0  0  0
    3.5408    1.7455    0.0000 C   0  0  0  0  0  0  0  0  0  0  0  0
    3.5408    3.4909    0.0000 Cl  0  0  0  0  0  0  0  0  0  0  0  0
  1  2  2  0  0  0  0 
  2  3  2  0  0  0  0 
  2  4  1  0  0  0  0 
  4  5  2  0  0  0  0 
  6  4  1  0  0  0  0 
  5  7  1  0  0  0  0 
  5  8  1  0  0  0  0 
  9  6  2  0  0  0  0 
  8 10  1  0  0  0  0 
  8 11  2  0  0  0  0 
 11  9  1  0  0  0  0 
  9 12  1  0  0  0  0 
M  END
> <Name>
Phenol, 2,4-dichloro-6-nitro-

> <Source>
NIST2DMolFile

> <Tox>
4.750

> <CAS>
609-89-2

$$$$

  CDK

 12 12  0  0  0  0  0  0  0  0999 V2000
    3.9891   -3.4585    0.0000 C   0  0  0  0  0  0  0  0  0  0  0  0
    4.6548   -4.6082    0.0000 N   0  0  0  0  0  0  0  0  0  0  0  0
    4.6548   -2.3041    0.0000 O   0  0  0  0  0  0  0  0  0  0  0  0
    2.6579   -3.4585    0.0000 C   0  0  0  0  0  0  0  0  0  0  0  0
    1.9969   -4.6082    0.0000 C   0  0  0  0  0  0  0  0  0  0  0  0
    1.9969   -2.3041    0.0000 C   0  0  0  0  0  0  0  0  0  0  0  0
    0.6656   -4.6082    0.0000 C   0  0  0  0  0  0  0  0  0  0  0  0
    0.6656   -2.3041    0.0000 C   0  0  0  0  0  0  0  0  0  0  0  0
    2.6579   -1.1544    0.0000 N   0  0  0  0  0  0  0  0  0  0  0  0
    0.0000   -3.4585    0.0000 C   0  0  0  0  0  0  0  0  0  0  0  0
    1.9969   -0.0000    0.0000 O   0  0  0  0  0  0  0  0  0  0  0  0
    3.9891   -1.1544    0.0000 O   0  0  0  0  0  0  0  0  0  0  0  0
  1  2  1  0  0  0  0 
  1  3  2  0  0  0  0 
  1  4  1  0  0  0  0 
  4  5  2  0  0  0  0 
  4  6  1  0  0  0  0 
  5  7  1  0  0  0  0 
  8  6  2  0  0  0  0 
  6  9  1  0  0  0  0 
  7 10  2  0  0  0  0 
 10  8  1  0  0  0  0 
  9 11  2  0  0  0  0 
  9 12  1  0  0  0  0 
M  CHG  1   9   1
M  CHG  1  12  -1
M  END
> <Name>
Benzamide, 2-nitro- (9CI)

> <Source>
DSSTox2DMolFile

> <Tox>
2.280

> <CAS>
610-15-1

$$$$

  CDK

 13 13  0  0  0  0  0  0  0  0999 V2000
    3.4459   -2.0016    0.0000 C   0  0  0  0  0  0  0  0  0  0  0  0
    4.5965   -2.6608    0.0000 C   0  0  0  0  0  0  0  0  0  0  0  0
    2.2893   -2.6608    0.0000 C   0  0  0  0  0  0  0  0  0  0  0  0
    3.4459   -0.6712    0.0000 N   0  0  0  0  0  0  0  0  0  0  0  0
    4.5965   -3.9913    0.0000 C   0  0  0  0  0  0  0  0  0  0  0  0
    2.2893   -3.9913    0.0000 C   0  0  0  0  0  0  0  0  0  0  0  0
    1.1566   -2.0016    0.0000 N   0  0  0  0  0  0  0  0  0  0  0  0
    2.2893   -0.0000    0.0000 O   0  0  0  0  0  0  0  0  0  0  0  0
    4.5965   -0.0000    0.0000 O   0  0  0  0  0  0  0  0  0  0  0  0
    3.4459   -4.6625    0.0000 C   0  0  0  0  0  0  0  0  0  0  0  0
    0.0000   -2.6608    0.0000 O   0  0  0  0  0  0  0  0  0  0  0  0
    1.1566   -0.6712    0.0000 O   0  0  0  0  0  0  0  0  0  0  0  0
    3.4459   -5.9929    0.0000 C   0  0  0  0  0  0  0  0  0  0  0  0
  1  2  2  0  0  0  0 
  1  3  1  0  0  0  0 
  1  4  1  0  0  0  0 
  2  5  1  0  0  0  0 
  6  3  2  0  0  0  0 
  3  7  1  0  0  0  0 
  4  8  1  0  0  0  0 
  4  9  2  0  0  0  0 
  5 10  2  0  0  0  0 
 10  6  1  0  0  0  0 
  7 11  1  0  0  0  0 
  7 12  2  0  0  0  0 
 10 13  1  0  0  0  0 
M  CHG  1   4   1
M  CHG  1   7   1
M  CHG  1   8  -1
M  CHG  1  11  -1
M  END
> <Name>
Benzene, 4-methyl-1,2-dinitro-

> <Source>
DSSTox2DMolFile

> <Tox>
4.520

> <CAS>
610-39-9

$$$$

  CDK

 11 11  0  0  0  0  0  0  0  0999 V2000
    1.9836   -2.2360   -0.1482 Br  0  0  0  0  0  0  0  0  0  0  0  0
    0.4096   -1.1789   -0.0644 C   0  0  0  0  0  0  0  0  0  0  0  0
    0.4644    0.2117    0.0317 C   0  0  0  0  0  0  0  0  0  0  0  0
   -0.8249   -1.8273   -0.1018 C   0  0  0  0  0  0  0  0  0  0  0  0
   -0.7154    0.9536    0.0904 C   0  0  0  0  0  0  0  0  0  0  0  0
    1.7280    0.9378    0.0743 C   0  0  0  0  0  0  0  0  0  0  0  0
   -2.0046   -1.0853   -0.0433 C   0  0  0  0  0  0  0  0  0  0  0  0
   -1.9498    0.3051    0.0529 C   0  0  0  0  0  0  0  0  0  0  0  0
    1.8559    1.8133   -0.9584 O   0  0  0  0  0  0  0  0  0  0  0  0
    2.6019    0.7970    0.9330 O   0  0  0  0  0  0  0  0  0  0  0  0
   -3.5488    1.3091    0.1337 Br  0  0  0  0  0  0  0  0  0  0  0  0
  1  2  1  0  0  0  0 
  3  2  2  0  0  0  0 
  2  4  1  0  0  0  0 
  3  5  1  0  0  0  0 
  3  6  1  0  0  0  0 
  4  7  2  0  0  0  0 
  5  8  2  0  0  0  0 
  9  6  1  0  0  0  0 
 10  6  2  0  0  0  0 
  8  7  1  0  0  0  0 
 11  8  1  0  0  0  0 
M  END
> <Name>
2,5-dibromobenzoic acid

> <Source>
Chemidplus3DMolFile

> <Tox>
2.690

> <CAS>
610-71-9

$$$$

  CDK

 11 11  0  0  0  0  0  0  0  0999 V2000
    2.4667    1.8500    0.0000 C   0  0  0  0  0  0  0  0  0  0  0  0
    1.5417    1.8500    0.0000 C   0  0  0  0  0  0  0  0  0  0  0  0
    3.0320    2.6723    0.0000 C   0  0  0  0  0  0  0  0  0  0  0  0
    3.0320    0.9764    0.0000 N   0  0  0  0  0  0  0  0  0  0  0  0
    0.9764    2.6723    0.0000 C   0  0  0  0  0  0  0  0  0  0  0  0
    2.4667    3.5459    0.0000 C   0  0  0  0  0  0  0  0  0  0  0  0
    4.0084    2.6723    0.0000 Cl  0  0  0  0  0  0  0  0  0  0  0  0
    3.9570    0.9764    0.0000 O   0  0  0  0  0  0  0  0  0  0  0  0
    2.4153    0.0000    0.0000 O   0  0  0  0  0  0  0  0  0  0  0  0
    1.5417    3.5459    0.0000 C   0  0  0  0  0  0  0  0  0  0  0  0
    0.0000    2.6723    0.0000 O   0  0  0  0  0  0  0  0  0  0  0  0
  2  1  2  0  0  0  0 
  1  3  1  0  0  0  0 
  1  4  1  0  0  0  0 
  5  2  1  0  0  0  0 
  3  6  2  0  0  0  0 
  3  7  1  0  0  0  0 
  4  8  2  0  0  0  0 
  4  9  2  0  0  0  0 
 10  5  2  0  0  0  0 
  5 11  1  0  0  0  0 
  6 10  1  0  0  0  0 
M  END
> <Name>
Phenol, 4-chloro-3-nitro-

> <Source>
NIST2DMolFile

> <Tox>
4.270

> <CAS>
610-78-6

$$$$

  CDK

 11 11  0  0  0  0  0  0  0  0999 V2000
    5.3194   -2.3037    0.0000 N   0  0  0  0  0  0  0  0  0  0  0  0
    5.9835   -1.1488    0.0000 O   0  0  0  0  0  0  0  0  0  0  0  0
    5.9835   -3.4525    0.0000 O   0  0  0  0  0  0  0  0  0  0  0  0
    3.9910   -2.3037    0.0000 C   0  0  0  0  0  0  0  0  0  0  0  0
    3.3269   -3.4525    0.0000 C   0  0  0  0  0  0  0  0  0  0  0  0
    3.3269   -1.1488    0.0000 C   0  0  0  0  0  0  0  0  0  0  0  0
    1.9925   -3.4525    0.0000 C   0  0  0  0  0  0  0  0  0  0  0  0
    1.9925   -1.1488    0.0000 C   0  0  0  0  0  0  0  0  0  0  0  0
    3.9910   -0.0000    0.0000 Cl  0  0  0  0  0  0  0  0  0  0  0  0
    1.3283   -2.3037    0.0000 C   0  0  0  0  0  0  0  0  0  0  0  0
    0.0000   -2.3037    0.0000 Cl  0  0  0  0  0  0  0  0  0  0  0  0
  1  2  2  0  0  0  0 
  1  3  1  0  0  0  0 
  1  4  1  0  0  0  0 
  4  5  2  0  0  0  0 
  4  6  1  0  0  0  0 
  5  7  1  0  0  0  0 
  8  6  2  0  0  0  0 
  6  9  1  0  0  0  0 
  7 10  2  0  0  0  0 
 10  8  1  0  0  0  0 
 10 11  1  0  0  0  0 
M  CHG  1   1   1
M  CHG  1   3  -1
M  END
> <Name>
Benzene, 2,4-dichloro-1-nitro-

> <Source>
DSSTox2DMolFile

> <Tox>
3.990

> <CAS>
611-06-3

$$$$

  CDK

  9  9  0  0  0  0  0  0  0  0999 V2000
    0.0000    1.6967    0.0000 N   0  0  0  0  0  0  0  0  0  0  0  0
    0.9980    1.6967    0.0000 C   0  0  0  0  0  0  0  0  0  0  0  0
    1.9961    1.6967    0.0000 C   0  0  0  0  0  0  0  0  0  0  0  0
    2.4951    0.8483    0.0000 C   0  0  0  0  0  0  0  0  0  0  0  0
    2.4951    2.5949    0.0000 C   0  0  0  0  0  0  0  0  0  0  0  0
    1.9961    0.0000    0.0000 O   0  0  0  0  0  0  0  0  0  0  0  0
    3.4932    0.8483    0.0000 C   0  0  0  0  0  0  0  0  0  0  0  0
    3.4932    2.5949    0.0000 C   0  0  0  0  0  0  0  0  0  0  0  0
    3.9922    1.7466    0.0000 C   0  0  0  0  0  0  0  0  0  0  0  0
  1  2  3  0  0  0  0 
  2  3  1  0  0  0  0 
  3  4  2  0  0  0  0 
  5  3  1  0  0  0  0 
  4  6  1  0  0  0  0 
  4  7  1  0  0  0  0 
  8  5  2  0  0  0  0 
  7  9  2  0  0  0  0 
  9  8  1  0  0  0  0 
M  END
> <Name>
Benzonitrile, 2-hydroxy-

> <Source>
NIST2DMolFile

> <Tox>
3.040

> <CAS>
611-20-1

$$$$

  CDK

 11 11  0  0  0  0  0  0  0  0999 V2000
    0.8200   -0.3798    4.6544 O   0  0  0  0  0  0  0  0  0  0  0  0
    1.8019   -0.9281    4.1023 N   0  0  0  0  0  0  0  0  0  0  0  0
    2.7421   -1.4354    4.7567 O   0  0  0  0  0  0  0  0  0  0  0  0
    1.8509   -0.9767    2.6799 C   0  0  0  0  0  0  0  0  0  0  0  0
    2.9180   -1.5734    2.0082 C   0  0  0  0  0  0  0  0  0  0  0  0
    0.8008   -0.4105    1.9570 C   0  0  0  0  0  0  0  0  0  0  0  0
    2.9348   -1.6038    0.6137 C   0  0  0  0  0  0  0  0  0  0  0  0
    4.0133   -2.1636    2.7190 C   0  0  0  0  0  0  0  0  0  0  0  0
    0.8176   -0.4410    0.5626 C   0  0  0  0  0  0  0  0  0  0  0  0
    1.8846   -1.0376   -0.1090 C   0  0  0  0  0  0  0  0  0  0  0  0
    4.8984   -2.6406    3.2933 N   0  0  0  0  0  0  0  0  0  0  0  0
  1  2  1  0  0  0  0 
  3  2  2  0  0  0  0 
  2  4  1  0  0  0  0 
  4  5  1  0  0  0  0 
  4  6  2  0  0  0  0 
  5  7  2  0  0  0  0 
  5  8  1  0  0  0  0 
  6  9  1  0  0  0  0 
  7 10  1  0  0  0  0 
 11  8  3  0  0  0  0 
  9 10  2  0  0  0  0 
M  CHG  1   1  -1
M  CHG  1   2   1
M  END
> <Name>
Benzonitrile, 2-nitro- (9CI)

> <Source>
Chemidplus3DMolFile

> <Tox>
4.080

> <CAS>
612-24-8

$$$$

  CDK

 11 11  0  0  0  0  0  0  0  0999 V2000
    1.5376    0.8928    0.0000 C   0  0  0  0  0  0  0  0  0  0  0  0
    2.0336    0.0000    0.0000 O   0  0  0  0  0  0  0  0  0  0  0  0
    2.0336    1.7360    0.0000 C   0  0  0  0  0  0  0  0  0  0  0  0
    1.5376    2.5793    0.0000 C   0  0  0  0  0  0  0  0  0  0  0  0
    3.0257    1.7360    0.0000 C   0  0  0  0  0  0  0  0  0  0  0  0
    0.4960    2.5793    0.0000 N   0  0  0  0  0  0  0  0  0  0  0  0
    2.0336    3.4721    0.0000 C   0  0  0  0  0  0  0  0  0  0  0  0
    3.5217    2.5793    0.0000 C   0  0  0  0  0  0  0  0  0  0  0  0
    0.0496    1.7360    0.0000 O   0  0  0  0  0  0  0  0  0  0  0  0
    0.0000    3.4721    0.0000 O   0  0  0  0  0  0  0  0  0  0  0  0
    3.0257    3.4721    0.0000 C   0  0  0  0  0  0  0  0  0  0  0  0
  1  2  1  0  0  0  0 
  1  3  1  0  0  0  0 
  4  3  2  0  0  0  0 
  3  5  1  0  0  0  0 
  4  6  1  0  0  0  0 
  7  4  1  0  0  0  0 
  5  8  2  0  0  0  0 
  6  9  2  0  0  0  0 
  6 10  2  0  0  0  0 
 11  7  2  0  0  0  0 
  8 11  1  0  0  0  0 
M  END
> <Name>
Benzenemethanol, 2-nitro- (9CI)

> <Source>
NIST2DMolFile

> <Tox>
2.850

> <CAS>
612-25-9

$$$$

  CDK

 14 15  0  0  0  0  0  0  0  0999 V2000
   -5.3597   -0.0418    0.0578 Br  0  0  0  0  0  0  0  0  0  0  0  0
   -3.5817    0.7390   -0.0211 C   0  0  0  0  0  0  0  0  0  0  0  0
   -2.5033   -0.3464   -0.0147 C   0  0  0  0  0  0  0  0  0  0  0  0
   -2.8154   -1.5539   -0.0276 O   0  0  0  0  0  0  0  0  0  0  0  0
   -1.1031    0.0464   -0.0089 C   0  0  0  0  0  0  0  0  0  0  0  0
   -0.1053   -0.9287   -0.0039 C   0  0  0  0  0  0  0  0  0  0  0  0
   -0.7597    1.3951   -0.0093 C   0  0  0  0  0  0  0  0  0  0  0  0
    1.2514   -0.5654    0.0010 C   0  0  0  0  0  0  0  0  0  0  0  0
    0.5830    1.7739   -0.0045 C   0  0  0  0  0  0  0  0  0  0  0  0
    1.6006    0.8061    0.0006 C   0  0  0  0  0  0  0  0  0  0  0  0
    2.2689   -1.5333    0.0056 C   0  0  0  0  0  0  0  0  0  0  0  0
    2.9572    1.1692    0.0051 C   0  0  0  0  0  0  0  0  0  0  0  0
    3.6117   -1.1544    0.0100 C   0  0  0  0  0  0  0  0  0  0  0  0
    3.9553    0.1942    0.0098 C   0  0  0  0  0  0  0  0  0  0  0  0
  1  2  1  0  0  0  0 
  3  2  1  0  0  0  0 
  4  3  2  0  0  0  0 
  5  3  1  0  0  0  0 
  5  6  2  0  0  0  0 
  5  7  1  0  0  0  0 
  8  6  1  0  0  0  0 
  9  7  2  0  0  0  0 
  8 10  1  0  0  0  0 
  8 11  2  0  0  0  0 
 10  9  1  0  0  0  0 
 10 12  2  0  0  0  0 
 11 13  1  0  0  0  0 
 12 14  1  0  0  0  0 
 13 14  2  0  0  0  0 
M  END
> <Name>
2-bromo-1-naphthalen-2-ylethanone

> <Source>
Chemidplus3DMolFile

> <Tox>
5.959

> <CAS>
613-54-7

$$$$

  CDK

 10 10  0  0  0  0  0  0  0  0999 V2000
    0.5049    0.8583    0.0000 C   0  0  0  0  0  0  0  0  0  0  0  0
    1.0098    1.7166    0.0000 C   0  0  0  0  0  0  0  0  0  0  0  0
    0.0000    0.0000    0.0000 N   0  0  0  0  0  0  0  0  0  0  0  0
    0.5049    2.5750    0.0000 O   0  0  0  0  0  0  0  0  0  0  0  0
    2.0196    1.7166    0.0000 C   0  0  0  0  0  0  0  0  0  0  0  0
    2.5245    2.5750    0.0000 C   0  0  0  0  0  0  0  0  0  0  0  0
    2.5245    0.8583    0.0000 C   0  0  0  0  0  0  0  0  0  0  0  0
    3.5343    2.5750    0.0000 C   0  0  0  0  0  0  0  0  0  0  0  0
    3.5343    0.8583    0.0000 C   0  0  0  0  0  0  0  0  0  0  0  0
    4.0391    1.7166    0.0000 C   0  0  0  0  0  0  0  0  0  0  0  0
  1  2  1  0  0  0  0 
  1  3  3  0  0  0  0 
  2  4  2  0  0  0  0 
  2  5  1  0  0  0  0 
  6  5  2  0  0  0  0 
  5  7  1  0  0  0  0 
  8  6  1  0  0  0  0 
  7  9  2  0  0  0  0 
 10  8  2  0  0  0  0 
  9 10  1  0  0  0  0 
M  END
> <Name>
Glyoxylonitrile, phenyl- (8CI)

> <Source>
NIST2DMolFile

> <Tox>
3.310

> <CAS>
613-90-1

$$$$

  CDK

 10 10  0  0  0  0  0  0  0  0999 V2000
    0.0000    0.8148    0.0000 C   0  0  0  0  0  0  0  0  0  0  0  0
    0.5092    1.7314    0.0000 C   0  0  0  0  0  0  0  0  0  0  0  0
    0.5092    0.0000    0.0000 C   0  0  0  0  0  0  0  0  0  0  0  0
    1.4767    1.7314    0.0000 C   0  0  0  0  0  0  0  0  0  0  0  0
    1.4767    0.0000    0.0000 C   0  0  0  0  0  0  0  0  0  0  0  0
    1.9860    0.8148    0.0000 C   0  0  0  0  0  0  0  0  0  0  0  0
    3.0044    0.8148    0.0000 N   0  0  0  0  0  0  0  0  0  0  0  0
    3.5136    0.0000    0.0000 C   0  0  0  0  0  0  0  0  0  0  0  0
    3.5136    1.7314    0.0000 C   0  0  0  0  0  0  0  0  0  0  0  0
    4.5321    1.7314    0.0000 C   0  0  0  0  0  0  0  0  0  0  0  0
  1  2  2  0  0  0  0 
  3  1  1  0  0  0  0 
  2  4  1  0  0  0  0 
  5  3  2  0  0  0  0 
  4  6  2  0  0  0  0 
  6  5  1  0  0  0  0 
  6  7  1  0  0  0  0 
  7  8  1  0  0  0  0 
  7  9  1  0  0  0  0 
  9 10  1  0  0  0  0 
M  END
> <Name>
Aniline, N-ethyl-N-methyl- (8CI)

> <Source>
NIST2DMolFile

> <Tox>
3.290

> <CAS>
613-97-8

$$$$

  CDK

  8  8  0  0  0  0  0  0  0  0999 V2000
    0.0000    1.7462    0.0000 I   0  0  0  0  0  0  0  0  0  0  0  0
    0.9978    1.7462    0.0000 C   0  0  0  0  0  0  0  0  0  0  0  0
    1.4967    0.8481    0.0000 C   0  0  0  0  0  0  0  0  0  0  0  0
    1.4967    2.5943    0.0000 C   0  0  0  0  0  0  0  0  0  0  0  0
    0.9978    0.0000    0.0000 N   0  0  0  0  0  0  0  0  0  0  0  0
    2.4945    0.8481    0.0000 C   0  0  0  0  0  0  0  0  0  0  0  0
    2.4945    2.5943    0.0000 C   0  0  0  0  0  0  0  0  0  0  0  0
    2.9934    1.7462    0.0000 C   0  0  0  0  0  0  0  0  0  0  0  0
  1  2  1  0  0  0  0 
  2  3  2  0  0  0  0 
  4  2  1  0  0  0  0 
  3  5  1  0  0  0  0 
  3  6  1  0  0  0  0 
  7  4  2  0  0  0  0 
  6  8  2  0  0  0  0 
  8  7  1  0  0  0  0 
M  END
> <Name>
Benzenamine, 2-iodo-

> <Source>
NIST2DMolFile

> <Tox>
3.350

> <CAS>
615-43-0

$$$$

  CDK

  9  9  0  0  0  0  0  0  0  0999 V2000
   -1.1740    1.5651    0.0000 C   0  0  0  0  0  0  0  0  0  0  0  0
   -1.0536    0.1759    0.0000 C   0  0  0  0  0  0  0  0  0  0  0  0
   -0.0067    2.3550    0.0000 C   0  0  0  0  0  0  0  0  0  0  0  0
   -2.3517    2.2473    0.0000 O   0  0  0  0  0  0  0  0  0  0  0  0
    0.1761   -0.4596    0.0000 C   0  0  0  0  0  0  0  0  0  0  0  0
   -2.5644   -0.9225    0.0000 Br  0  0  0  0  0  0  0  0  0  0  0  0
    1.2353    1.7336    0.0000 C   0  0  0  0  0  0  0  0  0  0  0  0
    1.2939    0.3496    0.0000 C   0  0  0  0  0  0  0  0  0  0  0  0
    2.9737   -0.4609    0.0000 Br  0  0  0  0  0  0  0  0  0  0  0  0
  1  2  1  0  0  0  0 
  1  3  2  0  0  0  0 
  1  4  1  0  0  0  0 
  2  5  2  0  0  0  0 
  2  6  1  0  0  0  0 
  7  3  1  0  0  0  0 
  5  8  1  0  0  0  0 
  8  7  2  0  0  0  0 
  8  9  1  0  0  0  0 
M  END
> <Name>
Phenol, 2,4-dibromo-

> <Source>
DougDB3DMolFile

> <Tox>
4.400

> <CAS>
615-58-7

$$$$

  CDK

  9  9  0  0  0  0  0  0  0  0999 V2000
    4.6082   -0.0000    0.0000 N   0  0  0  0  0  0  0  0  0  0  0  0
    3.4561   -0.6636    0.0000 C   0  0  0  0  0  0  0  0  0  0  0  0
    3.4561   -1.9953    0.0000 C   0  0  0  0  0  0  0  0  0  0  0  0
    2.3041   -0.0000    0.0000 C   0  0  0  0  0  0  0  0  0  0  0  0
    4.6082   -2.6589    0.0000 Cl  0  0  0  0  0  0  0  0  0  0  0  0
    2.3041   -2.6589    0.0000 C   0  0  0  0  0  0  0  0  0  0  0  0
    1.1520   -0.6636    0.0000 C   0  0  0  0  0  0  0  0  0  0  0  0
    1.1520   -1.9953    0.0000 C   0  0  0  0  0  0  0  0  0  0  0  0
    0.0000   -2.6589    0.0000 C   0  0  0  0  0  0  0  0  0  0  0  0
  1  2  1  0  0  0  0 
  2  3  2  0  0  0  0 
  2  4  1  0  0  0  0 
  3  5  1  0  0  0  0 
  3  6  1  0  0  0  0 
  7  4  2  0  0  0  0 
  6  8  2  0  0  0  0 
  8  7  1  0  0  0  0 
  8  9  1  0  0  0  0 
M  END
> <Name>
Benzenamine, 2-chloro-4-methyl-

> <Source>
DSSTox2DMolFile

> <Tox>
3.180

> <CAS>
615-65-6

$$$$

  CDK

  9  9  0  0  0  0  0  0  0  0999 V2000
    1.7493    2.9988    0.0000 O   0  0  0  0  0  0  0  0  0  0  0  0
    1.7493    1.9992    0.0000 C   0  0  0  0  0  0  0  0  0  0  0  0
    2.5989    1.4994    0.0000 C   0  0  0  0  0  0  0  0  0  0  0  0
    0.8996    1.4994    0.0000 C   0  0  0  0  0  0  0  0  0  0  0  0
    3.4985    1.9992    0.0000 Cl  0  0  0  0  0  0  0  0  0  0  0  0
    2.5989    0.4998    0.0000 C   0  0  0  0  0  0  0  0  0  0  0  0
    0.8996    0.4998    0.0000 C   0  0  0  0  0  0  0  0  0  0  0  0
    1.7493    0.0000    0.0000 C   0  0  0  0  0  0  0  0  0  0  0  0
    0.0000    0.0000    0.0000 C   0  0  0  0  0  0  0  0  0  0  0  0
  1  2  1  0  0  0  0 
  2  3  2  0  0  0  0 
  4  2  1  0  0  0  0 
  3  5  1  0  0  0  0 
  3  6  1  0  0  0  0 
  7  4  2  0  0  0  0 
  6  8  2  0  0  0  0 
  8  7  1  0  0  0  0 
  7  9  1  0  0  0  0 
M  END
> <Name>
Phenol, 2-chloro-5-methyl-

> <Source>
NIST2DMolFile

> <Tox>
3.540

> <CAS>
615-74-7

$$$$

  CDK

 10  9  0  0  0  0  0  0  0  0999 V2000
    0.0000    1.0097    0.0000 C   0  0  0  0  0  0  0  0  0  0  0  0
    0.9088    1.5146    0.0000 C   0  0  0  0  0  0  0  0  0  0  0  0
    1.7670    1.0097    0.0000 C   0  0  0  0  0  0  0  0  0  0  0  0
    2.7768    1.0097    0.0000 C   0  0  0  0  0  0  0  0  0  0  0  0
    3.5845    1.5146    0.0000 C   0  0  0  0  0  0  0  0  0  0  0  0
    2.7768    0.0000    0.0000 Br  0  0  0  0  0  0  0  0  0  0  0  0
    4.4933    1.0602    0.0000 O   0  0  0  0  0  0  0  0  0  0  0  0
    3.5845    2.5243    0.0000 O   0  0  0  0  0  0  0  0  0  0  0  0
    5.3516    1.5146    0.0000 C   0  0  0  0  0  0  0  0  0  0  0  0
    6.2098    1.0097    0.0000 C   0  0  0  0  0  0  0  0  0  0  0  0
  1  2  1  0  0  0  0 
  2  3  1  0  0  0  0 
  3  4  1  0  0  0  0 
  4  5  1  0  0  0  0 
  4  6  1  0  0  0  0 
  5  7  1  0  0  0  0 
  5  8  2  0  0  0  0 
  7  9  1  0  0  0  0 
  9 10  1  0  0  0  0 
M  END
> <Name>
Pentanoic acid, 2-bromo-, ethyl ester

> <Source>
NIST2DMolFile

> <Tox>
3.699

> <CAS>
615-83-8

$$$$

  CDK

  9  8  0  0  0  0  0  0  0  0999 V2000
    4.3615    1.5541    0.0000 C   0  0  0  0  0  0  0  0  0  0  0  0
    3.4591    1.0026    0.0000 C   0  0  0  0  0  0  0  0  0  0  0  0
    4.3615    2.5066    0.0000 O   0  0  0  0  0  0  0  0  0  0  0  0
    5.2137    1.0528    0.0000 O   0  0  0  0  0  0  0  0  0  0  0  0
    2.6069    1.5040    0.0000 C   0  0  0  0  0  0  0  0  0  0  0  0
    3.4591    0.0000    0.0000 Br  0  0  0  0  0  0  0  0  0  0  0  0
    1.7546    1.0026    0.0000 C   0  0  0  0  0  0  0  0  0  0  0  0
    0.8522    1.5040    0.0000 C   0  0  0  0  0  0  0  0  0  0  0  0
    0.0000    1.0026    0.0000 C   0  0  0  0  0  0  0  0  0  0  0  0
  1  2  1  0  0  0  0 
  1  3  1  0  0  0  0 
  1  4  2  0  0  0  0 
  2  5  1  0  0  0  0 
  2  6  1  0  0  0  0 
  5  7  1  0  0  0  0 
  7  8  1  0  0  0  0 
  8  9  1  0  0  0  0 
M  END
> <Name>
Hexanoic acid, 2-bromo-

> <Source>
NIST2DMolFile

> <Tox>
3.455

> <CAS>
616-05-7

$$$$

  CDK

  6  5  0  0  0  0  0  0  0  0999 V2000
    2.5838    1.4906    0.0000 C   0  0  0  0  0  0  0  0  0  0  0  0
    1.7391    0.9938    0.0000 C   0  0  0  0  0  0  0  0  0  0  0  0
    3.4781    0.9938    0.0000 C   0  0  0  0  0  0  0  0  0  0  0  0
    0.8944    1.4906    0.0000 C   0  0  0  0  0  0  0  0  0  0  0  0
    1.7391    0.0000    0.0000 N   0  0  0  0  0  0  0  0  0  0  0  0
    0.0000    0.9938    0.0000 C   0  0  0  0  0  0  0  0  0  0  0  0
  1  2  1  0  0  0  0 
  1  3  1  0  0  0  0 
  2  4  1  0  0  0  0 
  2  5  1  0  0  0  0 
  4  6  1  0  0  0  0 
M  END
> <Name>
Propylamine, 1-ethyl- (8CI)

> <Source>
NIST2DMolFile

> <Tox>
2.187

> <CAS>
616-24-0

$$$$

  CDK

  6  5  0  0  0  0  0  0  0  0999 V2000
    0.8944    0.0000    0.0000 C   0  0  0  0  0  0  0  0  0  0  0  0
    1.7391    0.4969    0.0000 C   0  0  0  0  0  0  0  0  0  0  0  0
    0.0000    0.4969    0.0000 C   0  0  0  0  0  0  0  0  0  0  0  0
    2.5838    0.0000    0.0000 C   0  0  0  0  0  0  0  0  0  0  0  0
    1.7391    1.4906    0.0000 O   0  0  0  0  0  0  0  0  0  0  0  0
    3.4781    0.4969    0.0000 C   0  0  0  0  0  0  0  0  0  0  0  0
  1  2  1  0  0  0  0 
  1  3  1  0  0  0  0 
  2  4  1  0  0  0  0 
  2  5  1  0  0  0  0 
  4  6  2  0  0  0  0 
M  END
> <Name>
1-Penten-3-ol

> <Source>
NIST2DMolFile

> <Tox>
1.653

> <CAS>
616-25-1

$$$$

  CDK

  6  5  0  0  0  0  0  0  0  0999 V2000
    0.8595    0.0000    0.0000 C   0  0  0  0  0  0  0  0  0  0  0  0
    1.7190    0.5056    0.0000 C   0  0  0  0  0  0  0  0  0  0  0  0
    0.0000    0.5056    0.0000 N   0  0  0  0  0  0  0  0  0  0  0  0
    1.7190    1.5168    0.0000 O   0  0  0  0  0  0  0  0  0  0  0  0
    2.5786    0.0000    0.0000 C   0  0  0  0  0  0  0  0  0  0  0  0
    3.4381    0.5056    0.0000 N   0  0  0  0  0  0  0  0  0  0  0  0
  1  2  1  0  0  0  0 
  1  3  1  0  0  0  0 
  2  4  1  0  0  0  0 
  2  5  1  0  0  0  0 
  5  6  1  0  0  0  0 
M  END
> <Name>
2-Propanol, 1,3-diamino-

> <Source>
NIST2DMolFile

> <Tox>
1.573

> <CAS>
616-29-5

$$$$

  CDK

  6  5  0  0  0  0  0  0  0  0999 V2000
    2.5838    1.4906    0.0000 C   0  0  0  0  0  0  0  0  0  0  0  0
    1.7391    0.9938    0.0000 N   0  0  0  0  0  0  0  0  0  0  0  0
    3.4781    0.9938    0.0000 C   0  0  0  0  0  0  0  0  0  0  0  0
    0.8944    1.4906    0.0000 C   0  0  0  0  0  0  0  0  0  0  0  0
    1.7391    0.0000    0.0000 C   0  0  0  0  0  0  0  0  0  0  0  0
    0.0000    0.9938    0.0000 C   0  0  0  0  0  0  0  0  0  0  0  0
  1  2  1  0  0  0  0 
  1  3  1  0  0  0  0 
  2  4  1  0  0  0  0 
  2  5  1  0  0  0  0 
  4  6  1  0  0  0  0 
M  END
> <Name>
Ethanamine, N-ethyl-N-methyl-

> <Source>
NIST2DMolFile

> <Tox>
2.244

> <CAS>
616-39-7

$$$$

  CDK

  6  6  0  0  0  0  0  0  0  0999 V2000
    3.4701    0.5811    0.9116 C   0  0  0  0  0  0  0  0  0  0  0  0
    2.8218    1.9047    0.8565 C   0  0  0  0  0  0  0  0  0  0  0  0
    1.3928    2.0641    0.7569 C   0  0  0  0  0  0  0  0  0  0  0  0
    3.4712    3.1092    0.8914 C   0  0  0  0  0  0  0  0  0  0  0  0
    1.0217    3.3764    0.7206 C   0  0  0  0  0  0  0  0  0  0  0  0
    2.3783    4.4400    0.8052 S   0  0  0  0  0  0  0  0  0  0  0  0
  1  2  1  0  0  0  0 
  2  3  1  0  0  0  0 
  4  2  2  0  0  0  0 
  3  5  2  0  0  0  0 
  6  4  1  0  0  0  0 
  5  6  1  0  0  0  0 
M  END
> <Name>
Thiophene, 3-methyl-

> <Source>
NIST3DMolFile

> <Tox>
2.300

> <CAS>
616-44-4

$$$$

  CDK

 13 13  0  0  0  0  0  0  0  0999 V2000
    6.9138   -0.0000    0.0000 N   0  0  0  0  0  0  0  0  0  0  0  0
    5.7601   -0.6696    0.0000 C   0  0  0  0  0  0  0  0  0  0  0  0
    5.7601   -2.0007    0.0000 C   0  0  0  0  0  0  0  0  0  0  0  0
    4.6065   -0.0000    0.0000 C   0  0  0  0  0  0  0  0  0  0  0  0
    6.9138   -2.6622    0.0000 N   0  0  0  0  0  0  0  0  0  0  0  0
    4.6065   -2.6622    0.0000 C   0  0  0  0  0  0  0  0  0  0  0  0
    3.4609   -0.6696    0.0000 C   0  0  0  0  0  0  0  0  0  0  0  0
    8.0674   -2.0007    0.0000 O   0  0  0  0  0  0  0  0  0  0  0  0
    6.9138   -3.9934    0.0000 O   0  0  0  0  0  0  0  0  0  0  0  0
    3.4609   -2.0007    0.0000 C   0  0  0  0  0  0  0  0  0  0  0  0
    2.3073   -2.6622    0.0000 O   0  0  0  0  0  0  0  0  0  0  0  0
    1.1536   -2.0007    0.0000 C   0  0  0  0  0  0  0  0  0  0  0  0
    0.0000   -2.6622    0.0000 C   0  0  0  0  0  0  0  0  0  0  0  0
  1  2  1  0  0  0  0 
  2  3  2  0  0  0  0 
  2  4  1  0  0  0  0 
  3  5  1  0  0  0  0 
  3  6  1  0  0  0  0 
  7  4  2  0  0  0  0 
  5  8  1  0  0  0  0 
  5  9  2  0  0  0  0 
  6 10  2  0  0  0  0 
 10  7  1  0  0  0  0 
 10 11  1  0  0  0  0 
 11 12  1  0  0  0  0 
 12 13  1  0  0  0  0 
M  CHG  1   5   1
M  CHG  1   8  -1
M  END
> <Name>
Benzenamine, 4-ethoxy-2-nitro-

> <Source>
DSSTox2DMolFile

> <Tox>
3.760

> <CAS>
616-86-4

$$$$

  CDK

 10 10  0  0  0  0  0  0  0  0999 V2000
    1.3291   -2.6582    0.0000 C   0  0  0  0  0  0  0  0  0  0  0  0
    2.4827   -3.3333    0.0000 C   0  0  0  0  0  0  0  0  0  0  0  0
    0.1754   -3.3333    0.0000 C   0  0  0  0  0  0  0  0  0  0  0  0
    1.3291   -1.3291    0.0000 C   0  0  0  0  0  0  0  0  0  0  0  0
    2.4827   -4.6624    0.0000 C   0  0  0  0  0  0  0  0  0  0  0  0
    0.1754   -4.6624    0.0000 C   0  0  0  0  0  0  0  0  0  0  0  0
    0.0000   -1.3291    0.0000 O   0  0  0  0  0  0  0  0  0  0  0  0
    2.6582   -1.3291    0.0000 C   0  0  0  0  0  0  0  0  0  0  0  0
    1.3291   -0.0000    0.0000 C   0  0  0  0  0  0  0  0  0  0  0  0
    1.3291   -5.3163    0.0000 C   0  0  0  0  0  0  0  0  0  0  0  0
  1  2  2  0  0  0  0 
  1  3  1  0  0  0  0 
  1  4  1  0  0  0  0 
  2  5  1  0  0  0  0 
  6  3  2  0  0  0  0 
  4  7  1  0  0  0  0 
  4  8  1  0  0  0  0 
  4  9  1  0  0  0  0 
  5 10  2  0  0  0  0 
 10  6  1  0  0  0  0 
M  END
> <Name>
Benzenemethanol, alpha,alpha-dimethyl-

> <Source>
DSSTox2DMolFile

> <Tox>
2.430

> <CAS>
617-94-7

$$$$

  CDK

  9  9  0  0  0  0  0  0  0  0999 V2000
    0.0015    1.5018    0.0000 C   0  0  0  0  0  0  0  0  0  0  0  0
    0.8634    2.0016    0.0000 C   0  0  0  0  0  0  0  0  0  0  0  0
    0.0000    0.5000    0.0000 C   0  0  0  0  0  0  0  0  0  0  0  0
    1.7297    1.5062    0.0000 C   0  0  0  0  0  0  0  0  0  0  0  0
    0.8656    0.0000    0.0000 C   0  0  0  0  0  0  0  0  0  0  0  0
    1.7332    0.5005    0.0000 C   0  0  0  0  0  0  0  0  0  0  0  0
    2.5929    2.0090    0.0000 C   0  0  0  0  0  0  0  0  0  0  0  0
    3.4599    1.5128    0.0000 C   0  0  0  0  0  0  0  0  0  0  0  0
    2.5891    3.0080    0.0000 N   0  0  0  0  0  0  0  0  0  0  0  0
  1  2  1  0  0  0  0 
  3  1  2  0  0  0  0 
  2  4  2  0  0  0  0 
  5  3  1  0  0  0  0 
  4  6  1  0  0  0  0 
  4  7  1  0  0  0  0 
  6  5  2  0  0  0  0 
  7  8  1  0  0  0  0 
  7  9  1  0  0  0  0 
M  END
> <Name>
Benzenemethanamine, alpha-methyl-

> <Source>
NIST2DMolFile

> <Tox>
2.820

> <CAS>
618-36-0

$$$$

  CDK

 10 10  0  0  0  0  0  0  0  0999 V2000
    3.4884    0.8472    0.0000 C   0  0  0  0  0  0  0  0  0  0  0  0
    2.9900    1.7442    0.0000 C   0  0  0  0  0  0  0  0  0  0  0  0
    3.4884    2.5914    0.0000 C   0  0  0  0  0  0  0  0  0  0  0  0
    1.9934    1.7442    0.0000 C   0  0  0  0  0  0  0  0  0  0  0  0
    1.4950    0.8472    0.0000 C   0  0  0  0  0  0  0  0  0  0  0  0
    1.4950    2.5914    0.0000 C   0  0  0  0  0  0  0  0  0  0  0  0
    0.4983    0.8472    0.0000 C   0  0  0  0  0  0  0  0  0  0  0  0
    0.4983    2.5914    0.0000 C   0  0  0  0  0  0  0  0  0  0  0  0
    0.0000    0.0000    0.0000 O   0  0  0  0  0  0  0  0  0  0  0  0
    0.0000    1.7442    0.0000 C   0  0  0  0  0  0  0  0  0  0  0  0
  1  2  1  0  0  0  0 
  2  3  1  0  0  0  0 
  2  4  1  0  0  0  0 
  5  4  2  0  0  0  0 
  4  6  1  0  0  0  0 
  7  5  1  0  0  0  0 
  6  8  2  0  0  0  0 
  7  9  1  0  0  0  0 
 10  7  2  0  0  0  0 
  8 10  1  0  0  0  0 
M  END
> <Name>
Phenol, 3-(1-methylethyl)-

> <Source>
NIST2DMolFile

> <Tox>
3.610

> <CAS>
618-45-1

$$$$

  CDK

 11 11  0  0  0  0  0  0  0  0999 V2000
    2.1380    2.8953   -0.0015 Br  0  0  0  0  0  0  0  0  0  0  0  0
    1.2481    1.2275    0.0007 C   0  0  0  0  0  0  0  0  0  0  0  0
   -0.1461    1.1809    0.0007 C   0  0  0  0  0  0  0  0  0  0  0  0
    1.9855    0.0434    0.0003 C   0  0  0  0  0  0  0  0  0  0  0  0
   -0.8029   -0.0497    0.0004 C   0  0  0  0  0  0  0  0  0  0  0  0
    1.3286   -1.1872   -0.0001 C   0  0  0  0  0  0  0  0  0  0  0  0
   -0.0655   -1.2336    0.0000 C   0  0  0  0  0  0  0  0  0  0  0  0
   -2.2565   -0.0981   -0.0005 C   0  0  0  0  0  0  0  0  0  0  0  0
    2.3275   -2.7919    0.0003 Br  0  0  0  0  0  0  0  0  0  0  0  0
   -2.8185    1.1416    0.0015 O   0  0  0  0  0  0  0  0  0  0  0  0
   -2.9384   -1.1282   -0.0016 O   0  0  0  0  0  0  0  0  0  0  0  0
  1  2  1  0  0  0  0 
  3  2  2  0  0  0  0 
  2  4  1  0  0  0  0 
  5  3  1  0  0  0  0 
  6  4  2  0  0  0  0 
  5  7  2  0  0  0  0 
  5  8  1  0  0  0  0 
  9  6  1  0  0  0  0 
  7  6  1  0  0  0  0 
 10  8  1  0  0  0  0 
 11  8  2  0  0  0  0 
M  END
> <Name>
3,5-dibromobenzoic acid

> <Source>
Chemidplus3DMolFile

> <Tox>
3.460

> <CAS>
618-58-6

$$$$

  CDK

 11 11  0  0  0  0  0  0  0  0999 V2000
    2.6277    0.5053    0.0000 C   0  0  0  0  0  0  0  0  0  0  0  0
    2.6277    1.5160    0.0000 C   0  0  0  0  0  0  0  0  0  0  0  0
    1.7687    0.0000    0.0000 C   0  0  0  0  0  0  0  0  0  0  0  0
    3.4868    0.0000    0.0000 Cl  0  0  0  0  0  0  0  0  0  0  0  0
    1.7687    1.9708    0.0000 C   0  0  0  0  0  0  0  0  0  0  0  0
    0.9096    0.5053    0.0000 C   0  0  0  0  0  0  0  0  0  0  0  0
    0.9096    1.5160    0.0000 C   0  0  0  0  0  0  0  0  0  0  0  0
    1.7687    2.9815    0.0000 N   0  0  0  0  0  0  0  0  0  0  0  0
    0.0000    0.0000    0.0000 Cl  0  0  0  0  0  0  0  0  0  0  0  0
    2.6277    3.4868    0.0000 O   0  0  0  0  0  0  0  0  0  0  0  0
    0.9096    3.4868    0.0000 O   0  0  0  0  0  0  0  0  0  0  0  0
  2  1  2  0  0  0  0 
  1  3  1  0  0  0  0 
  1  4  1  0  0  0  0 
  5  2  1  0  0  0  0 
  3  6  2  0  0  0  0 
  7  5  2  0  0  0  0 
  5  8  1  0  0  0  0 
  6  7  1  0  0  0  0 
  6  9  1  0  0  0  0 
  8 10  2  0  0  0  0 
  8 11  2  0  0  0  0 
M  END
> <Name>
Benzene, 1,3-dichloro-5-nitro-

> <Source>
NIST2DMolFile

> <Tox>
4.130

> <CAS>
618-62-2

$$$$

  CDK

 13 13  0  0  0  0  0  0  0  0999 V2000
   -0.0001    3.3765    0.0000 N   0  0  0  0  0  0  0  0  0  0  0  0
    0.0000    1.9807    0.0000 C   0  0  0  0  0  0  0  0  0  0  0  0
    1.2174    1.2772    0.0000 C   0  0  0  0  0  0  0  0  0  0  0  0
   -1.2174    1.2773    0.0000 C   0  0  0  0  0  0  0  0  0  0  0  0
    1.2067   -0.1172    0.0000 C   0  0  0  0  0  0  0  0  0  0  0  0
   -1.2067   -0.1172    0.0000 C   0  0  0  0  0  0  0  0  0  0  0  0
   -0.0001   -0.8226    0.0000 C   0  0  0  0  0  0  0  0  0  0  0  0
    2.5120   -0.8679    0.0000 N   0  0  0  0  0  0  0  0  0  0  0  0
   -2.5120   -0.8679    0.0000 N   0  0  0  0  0  0  0  0  0  0  0  0
    3.5527   -0.2412    0.0000 O   0  0  0  0  0  0  0  0  0  0  0  0
    2.5015   -2.0806    0.0000 O   0  0  0  0  0  0  0  0  0  0  0  0
   -3.5529   -0.2415    0.0000 O   0  0  0  0  0  0  0  0  0  0  0  0
   -2.5013   -2.0806    0.0000 O   0  0  0  0  0  0  0  0  0  0  0  0
  1  2  1  0  0  0  0 
  2  3  1  0  0  0  0 
  2  4  2  0  0  0  0 
  3  5  2  0  0  0  0 
  6  4  1  0  0  0  0 
  5  7  1  0  0  0  0 
  5  8  1  0  0  0  0 
  7  6  2  0  0  0  0 
  6  9  1  0  0  0  0 
  8 10  2  0  0  0  0 
  8 11  1  0  0  0  0 
  9 12  2  0  0  0  0 
  9 13  1  0  0  0  0 
M  CHG  1   8   1
M  CHG  1   9   1
M  CHG  1  11  -1
M  CHG  1  13  -1
M  END
> <Name>
Benzenamine, 3,5-dinitro- (9CI)

> <Source>
DougDB3DMolFile

> <Tox>
3.940

> <CAS>
618-87-1

$$$$

  CDK

 11 11  0  0  0  0  0  0  0  0999 V2000
   -1.4415    1.0425    0.0000 C   0  0  0  0  0  0  0  0  0  0  0  0
   -1.1550   -0.3344    0.0000 C   0  0  0  0  0  0  0  0  0  0  0  0
   -0.3920    1.9760    0.0000 C   0  0  0  0  0  0  0  0  0  0  0  0
   -2.6997    1.5481    0.0000 O   0  0  0  0  0  0  0  0  0  0  0  0
    0.1618   -0.7750    0.0000 C   0  0  0  0  0  0  0  0  0  0  0  0
   -2.4092   -1.4648    0.0000 Cl  0  0  0  0  0  0  0  0  0  0  0  0
    0.9188    1.5309    0.0000 C   0  0  0  0  0  0  0  0  0  0  0  0
    1.2056    0.1565    0.0000 C   0  0  0  0  0  0  0  0  0  0  0  0
    2.6249   -0.3122    0.0000 N   0  0  0  0  0  0  0  0  0  0  0  0
    2.8594   -1.5048    0.0000 O   0  0  0  0  0  0  0  0  0  0  0  0
    3.5238    0.5056    0.0000 O   0  0  0  0  0  0  0  0  0  0  0  0
  1  2  1  0  0  0  0 
  1  3  2  0  0  0  0 
  1  4  1  0  0  0  0 
  2  5  2  0  0  0  0 
  2  6  1  0  0  0  0 
  7  3  1  0  0  0  0 
  5  8  1  0  0  0  0 
  8  7  2  0  0  0  0 
  8  9  1  0  0  0  0 
  9 10  2  0  0  0  0 
  9 11  1  0  0  0  0 
M  CHG  1   9   1
M  CHG  1  11  -1
M  END
> <Name>
Phenol, 2-chloro-4-nitro-

> <Source>
DougDB3DMolFile

> <Tox>
4.180

> <CAS>
619-08-9

$$$$

  CDK

 11 11  0  0  0  0  0  0  0  0999 V2000
   -2.7694    0.7527    0.0000 C   0  0  0  0  0  0  0  0  0  0  0  0
   -1.5730   -0.0206    0.0000 C   0  0  0  0  0  0  0  0  0  0  0  0
   -3.7453    1.3785    0.0000 N   0  0  0  0  0  0  0  0  0  0  0  0
   -0.3354    0.6253    0.0000 C   0  0  0  0  0  0  0  0  0  0  0  0
   -1.6535   -1.4169    0.0000 C   0  0  0  0  0  0  0  0  0  0  0  0
    0.8349   -0.1414    0.0000 C   0  0  0  0  0  0  0  0  0  0  0  0
   -0.4831   -2.1665    0.0000 C   0  0  0  0  0  0  0  0  0  0  0  0
    0.7577   -1.5394    0.0000 C   0  0  0  0  0  0  0  0  0  0  0  0
    2.1750    0.5370    0.0000 N   0  0  0  0  0  0  0  0  0  0  0  0
    3.1822   -0.1410    0.0000 O   0  0  0  0  0  0  0  0  0  0  0  0
    2.2251    1.7499    0.0000 O   0  0  0  0  0  0  0  0  0  0  0  0
  1  2  1  0  0  0  0 
  1  3  3  0  0  0  0 
  2  4  1  0  0  0  0 
  2  5  2  0  0  0  0 
  4  6  2  0  0  0  0 
  7  5  1  0  0  0  0 
  6  8  1  0  0  0  0 
  6  9  1  0  0  0  0 
  8  7  2  0  0  0  0 
  9 10  2  0  0  0  0 
  9 11  1  0  0  0  0 
M  CHG  1   9   1
M  CHG  1  11  -1
M  END
> <Name>
Benzonitrile, 3-nitro-

> <Source>
DougDB3DMolFile

> <Tox>
3.450

> <CAS>
619-24-9

$$$$

  CDK

 11 11  0  0  0  0  0  0  0  0999 V2000
    0.0497    1.7405    0.0000 O   0  0  0  0  0  0  0  0  0  0  0  0
    0.4973    0.8454    0.0000 N   0  0  0  0  0  0  0  0  0  0  0  0
    0.0000    0.0000    0.0000 O   0  0  0  0  0  0  0  0  0  0  0  0
    1.5416    0.8454    0.0000 C   0  0  0  0  0  0  0  0  0  0  0  0
    2.0389    1.7405    0.0000 C   0  0  0  0  0  0  0  0  0  0  0  0
    2.0389    0.0000    0.0000 C   0  0  0  0  0  0  0  0  0  0  0  0
    3.0335    1.7405    0.0000 C   0  0  0  0  0  0  0  0  0  0  0  0
    3.0335    0.0000    0.0000 C   0  0  0  0  0  0  0  0  0  0  0  0
    3.5307    2.5859    0.0000 C   0  0  0  0  0  0  0  0  0  0  0  0
    3.5307    0.8454    0.0000 C   0  0  0  0  0  0  0  0  0  0  0  0
    4.5253    2.5859    0.0000 O   0  0  0  0  0  0  0  0  0  0  0  0
  1  2  2  0  0  0  0 
  2  3  2  0  0  0  0 
  2  4  1  0  0  0  0 
  5  4  2  0  0  0  0 
  4  6  1  0  0  0  0 
  7  5  1  0  0  0  0 
  6  8  2  0  0  0  0 
  7  9  1  0  0  0  0 
 10  7  2  0  0  0  0 
  8 10  1  0  0  0  0 
  9 11  1  0  0  0  0 
M  END
> <Name>
Benzenemethanol, 3-nitro-

> <Source>
NIST2DMolFile

> <Tox>
2.780

> <CAS>
619-25-0

$$$$

  CDK

 11 11  0  0  0  0  0  0  0  0999 V2000
    4.2968   -0.3318   -0.0018 Br  0  0  0  0  0  0  0  0  0  0  0  0
    2.4187   -0.1205    0.0000 C   0  0  0  0  0  0  0  0  0  0  0  0
    1.8607    1.1578   -0.0002 C   0  0  0  0  0  0  0  0  0  0  0  0
    1.5906   -1.2429    0.0007 C   0  0  0  0  0  0  0  0  0  0  0  0
    0.4746    1.3139    0.0006 C   0  0  0  0  0  0  0  0  0  0  0  0
    0.2045   -1.0870    0.0012 C   0  0  0  0  0  0  0  0  0  0  0  0
   -0.3535    0.1914    0.0011 C   0  0  0  0  0  0  0  0  0  0  0  0
   -1.7988    0.3537    0.0006 C   0  0  0  0  0  0  0  0  0  0  0  0
   -2.4407   -0.8545    0.0001 O   0  0  0  0  0  0  0  0  0  0  0  0
   -2.3807    1.4466   -0.0005 O   0  0  0  0  0  0  0  0  0  0  0  0
   -3.8721   -0.8267   -0.0018 C   0  0  0  0  0  0  0  0  0  0  0  0
  1  2  1  0  0  0  0 
  3  2  2  0  0  0  0 
  4  2  1  0  0  0  0 
  5  3  1  0  0  0  0 
  6  4  2  0  0  0  0 
  7  5  2  0  0  0  0 
  7  6  1  0  0  0  0 
  7  8  1  0  0  0  0 
  9  8  1  0  0  0  0 
 10  8  2  0  0  0  0 
  9 11  1  0  0  0  0 
M  END
> <Name>
methyl 4-bromobenzoate

> <Source>
Chemidplus3DMolFile

> <Tox>
3.600

> <CAS>
619-42-1

$$$$

  CDK

 13 13  0  0  0  0  0  0  0  0999 V2000
    3.9911   -3.4590    0.0000 C   0  0  0  0  0  0  0  0  0  0  0  0
    2.6607   -3.4590    0.0000 C   0  0  0  0  0  0  0  0  0  0  0  0
    4.6563   -2.3082    0.0000 C   0  0  0  0  0  0  0  0  0  0  0  0
    1.9956   -2.3082    0.0000 C   0  0  0  0  0  0  0  0  0  0  0  0
    3.9911   -1.1574    0.0000 C   0  0  0  0  0  0  0  0  0  0  0  0
    5.9867   -2.3082    0.0000 C   0  0  0  0  0  0  0  0  0  0  0  0
    0.6652   -2.3082    0.0000 N   0  0  0  0  0  0  0  0  0  0  0  0
    2.6607   -1.1574    0.0000 C   0  0  0  0  0  0  0  0  0  0  0  0
    6.6519   -3.4590    0.0000 O   0  0  0  0  0  0  0  0  0  0  0  0
    6.6519   -1.1574    0.0000 O   0  0  0  0  0  0  0  0  0  0  0  0
    0.0000   -3.4590    0.0000 O   0  0  0  0  0  0  0  0  0  0  0  0
    0.0000   -1.1574    0.0000 O   0  0  0  0  0  0  0  0  0  0  0  0
    5.9867   -0.0000    0.0000 C   0  0  0  0  0  0  0  0  0  0  0  0
  1  2  2  0  0  0  0 
  1  3  1  0  0  0  0 
  2  4  1  0  0  0  0 
  5  3  2  0  0  0  0 
  3  6  1  0  0  0  0 
  4  7  1  0  0  0  0 
  4  8  2  0  0  0  0 
  8  5  1  0  0  0  0 
  6  9  2  0  0  0  0 
  6 10  1  0  0  0  0 
  7 11  2  0  0  0  0 
  7 12  1  0  0  0  0 
 10 13  1  0  0  0  0 
M  CHG  1   7   1
M  CHG  1  12  -1
M  END
> <Name>
Benzoic acid, 4-nitro-, methyl ester

> <Source>
DSSTox2DMolFile

> <Tox>
3.390

> <CAS>
619-50-1

$$$$

  CDK

 10 10  0  0  0  0  0  0  0  0999 V2000
    0.0503    1.7098    0.0000 N   0  0  0  0  0  0  0  0  0  0  0  0
    0.5029    0.8549    0.0000 C   0  0  0  0  0  0  0  0  0  0  0  0
    0.0000    0.0000    0.0000 O   0  0  0  0  0  0  0  0  0  0  0  0
    1.5590    0.8549    0.0000 C   0  0  0  0  0  0  0  0  0  0  0  0
    2.0618    1.7098    0.0000 C   0  0  0  0  0  0  0  0  0  0  0  0
    2.0618    0.0000    0.0000 C   0  0  0  0  0  0  0  0  0  0  0  0
    3.0676    1.7098    0.0000 C   0  0  0  0  0  0  0  0  0  0  0  0
    3.0676    0.0000    0.0000 C   0  0  0  0  0  0  0  0  0  0  0  0
    3.5705    0.8549    0.0000 C   0  0  0  0  0  0  0  0  0  0  0  0
    4.5763    0.8549    0.0000 Cl  0  0  0  0  0  0  0  0  0  0  0  0
  1  2  1  0  0  0  0 
  2  3  2  0  0  0  0 
  2  4  1  0  0  0  0 
  5  4  2  0  0  0  0 
  4  6  1  0  0  0  0 
  7  5  1  0  0  0  0 
  6  8  2  0  0  0  0 
  9  7  2  0  0  0  0 
  8  9  1  0  0  0  0 
  9 10  1  0  0  0  0 
M  END
> <Name>
Benzamide, p-chloro- (6CI,7CI,8CI)

> <Source>
NIST2DMolFile

> <Tox>
3.090

> <CAS>
619-56-7

$$$$

  CDK

 11 11  0  0  0  0  0  0  0  0999 V2000
    3.2374    0.0001    0.0000 C   0  0  0  0  0  0  0  0  0  0  0  0
    1.8118   -0.0010    0.0000 C   0  0  0  0  0  0  0  0  0  0  0  0
    4.3966    0.0013    0.0000 N   0  0  0  0  0  0  0  0  0  0  0  0
    1.1190   -1.2143    0.0000 C   0  0  0  0  0  0  0  0  0  0  0  0
    1.1194    1.2127    0.0000 C   0  0  0  0  0  0  0  0  0  0  0  0
   -0.2705   -1.2128    0.0000 C   0  0  0  0  0  0  0  0  0  0  0  0
   -0.2699    1.2118    0.0000 C   0  0  0  0  0  0  0  0  0  0  0  0
   -0.9698   -0.0003    0.0000 C   0  0  0  0  0  0  0  0  0  0  0  0
   -2.4719    0.0004    0.0000 N   0  0  0  0  0  0  0  0  0  0  0  0
   -3.0658   -1.0587    0.0000 O   0  0  0  0  0  0  0  0  0  0  0  0
   -3.0643    1.0603    0.0000 O   0  0  0  0  0  0  0  0  0  0  0  0
  1  2  1  0  0  0  0 
  1  3  3  0  0  0  0 
  2  4  1  0  0  0  0 
  2  5  2  0  0  0  0 
  4  6  2  0  0  0  0 
  7  5  1  0  0  0  0 
  6  8  1  0  0  0  0 
  8  7  2  0  0  0  0 
  8  9  1  0  0  0  0 
  9 10  2  0  0  0  0 
  9 11  1  0  0  0  0 
M  CHG  1   9   1
M  CHG  1  11  -1
M  END
> <Name>
Benzonitrile, 4-nitro-

> <Source>
DougDB3DMolFile

> <Tox>
3.570

> <CAS>
619-72-7

$$$$

  CDK

 11 11  0  0  0  0  0  0  0  0999 V2000
    2.5539    0.0943   -2.0907 O   0  0  0  0  0  0  0  0  0  0  0  0
    1.9025   -1.0709   -1.5998 C   0  0  0  0  0  0  0  0  0  0  0  0
    1.8846   -1.0376   -0.1090 C   0  0  0  0  0  0  0  0  0  0  0  0
    0.8176   -0.4410    0.5626 C   0  0  0  0  0  0  0  0  0  0  0  0
    2.9348   -1.6038    0.6137 C   0  0  0  0  0  0  0  0  0  0  0  0
    0.8008   -0.4105    1.9570 C   0  0  0  0  0  0  0  0  0  0  0  0
    2.9180   -1.5734    2.0082 C   0  0  0  0  0  0  0  0  0  0  0  0
    1.8509   -0.9767    2.6799 C   0  0  0  0  0  0  0  0  0  0  0  0
    1.8331   -0.9466    4.0994 N   0  0  0  0  0  0  0  0  0  0  0  0
    0.8635   -0.4056    4.6841 O   0  0  0  0  0  0  0  0  0  0  0  0
    2.7873   -1.4620    4.7306 O   0  0  0  0  0  0  0  0  0  0  0  0
  1  2  1  0  0  0  0 
  3  2  1  0  0  0  0 
  3  4  2  0  0  0  0 
  3  5  1  0  0  0  0 
  4  6  1  0  0  0  0 
  5  7  2  0  0  0  0 
  8  6  2  0  0  0  0 
  8  7  1  0  0  0  0 
  9  8  1  0  0  0  0 
 10  9  1  0  0  0  0 
 11  9  2  0  0  0  0 
M  CHG  1   9   1
M  CHG  1  10  -1
M  END
> <Name>
Benzenemethanol, 4-nitro-

> <Source>
Chemidplus3DMolFile

> <Tox>
3.120

> <CAS>
619-73-8

$$$$

  CDK

 12 12  0  0  0  0  0  0  0  0999 V2000
    2.6616   -0.0000    0.0000 C   0  0  0  0  0  0  0  0  0  0  0  0
    3.9924   -0.0000    0.0000 C   0  0  0  0  0  0  0  0  0  0  0  0
    1.9962   -1.1511    0.0000 C   0  0  0  0  0  0  0  0  0  0  0  0
    4.6578   -1.1511    0.0000 C   0  0  0  0  0  0  0  0  0  0  0  0
    2.6616   -2.3023    0.0000 C   0  0  0  0  0  0  0  0  0  0  0  0
    0.6654   -1.1511    0.0000 C   0  0  0  0  0  0  0  0  0  0  0  0
    5.9885   -1.1511    0.0000 N   0  0  0  0  0  0  0  0  0  0  0  0
    3.9924   -2.3023    0.0000 C   0  0  0  0  0  0  0  0  0  0  0  0
    0.0000   -2.3023    0.0000 O   0  0  0  0  0  0  0  0  0  0  0  0
    0.0000   -0.0000    0.0000 N   0  0  0  0  0  0  0  0  0  0  0  0
    6.6539   -0.0000    0.0000 O   0  0  0  0  0  0  0  0  0  0  0  0
    6.6539   -2.3023    0.0000 O   0  0  0  0  0  0  0  0  0  0  0  0
  1  2  2  0  0  0  0 
  1  3  1  0  0  0  0 
  2  4  1  0  0  0  0 
  5  3  2  0  0  0  0 
  3  6  1  0  0  0  0 
  4  7  1  0  0  0  0 
  4  8  2  0  0  0  0 
  8  5  1  0  0  0  0 
  6  9  2  0  0  0  0 
  6 10  1  0  0  0  0 
  7 11  1  0  0  0  0 
  7 12  2  0  0  0  0 
M  CHG  1   7   1
M  CHG  1  11  -1
M  END
> <Name>
Benzamide, 4-nitro-

> <Source>
DSSTox2DMolFile

> <Tox>
3.180

> <CAS>
619-80-7

$$$$

  CDK

  9  9  0  0  0  0  0  0  0  0999 V2000
    2.3042   -2.6614    0.0000 C   0  0  0  0  0  0  0  0  0  0  0  0
    1.1521   -1.9989    0.0000 C   0  0  0  0  0  0  0  0  0  0  0  0
    3.4563   -1.9989    0.0000 C   0  0  0  0  0  0  0  0  0  0  0  0
    0.0000   -2.6614    0.0000 O   0  0  0  0  0  0  0  0  0  0  0  0
    1.1521   -0.6682    0.0000 C   0  0  0  0  0  0  0  0  0  0  0  0
    3.4563   -0.6682    0.0000 C   0  0  0  0  0  0  0  0  0  0  0  0
    4.6084   -2.6614    0.0000 C   0  0  0  0  0  0  0  0  0  0  0  0
    2.3042   -0.0000    0.0000 C   0  0  0  0  0  0  0  0  0  0  0  0
    5.7605   -1.9989    0.0000 C   0  0  0  0  0  0  0  0  0  0  0  0
  1  2  2  0  0  0  0 
  1  3  1  0  0  0  0 
  2  4  1  0  0  0  0 
  2  5  1  0  0  0  0 
  6  3  2  0  0  0  0 
  3  7  1  0  0  0  0 
  5  8  2  0  0  0  0 
  8  6  1  0  0  0  0 
  7  9  1  0  0  0  0 
M  END
> <Name>
Phenol, m-ethyl- (8CI)

> <Source>
DSSTox2DMolFile

> <Tox>
3.290

> <CAS>
620-17-7

$$$$

  CDK

  9  9  0  0  0  0  0  0  0  0999 V2000
    1.1515   -2.6601    0.0000 C   0  0  0  0  0  0  0  0  0  0  0  0
    0.0000   -3.3222    0.0000 N   0  0  0  0  0  0  0  0  0  0  0  0
    2.3031   -1.9922    0.0000 C   0  0  0  0  0  0  0  0  0  0  0  0
    2.3031   -0.6621    0.0000 C   0  0  0  0  0  0  0  0  0  0  0  0
    3.4546   -2.6601    0.0000 C   0  0  0  0  0  0  0  0  0  0  0  0
    3.4546   -0.0000    0.0000 C   0  0  0  0  0  0  0  0  0  0  0  0
    4.6062   -1.9922    0.0000 C   0  0  0  0  0  0  0  0  0  0  0  0
    4.6062   -0.6621    0.0000 C   0  0  0  0  0  0  0  0  0  0  0  0
    5.7577   -2.6601    0.0000 C   0  0  0  0  0  0  0  0  0  0  0  0
  1  2  3  0  0  0  0 
  1  3  1  0  0  0  0 
  3  4  2  0  0  0  0 
  3  5  1  0  0  0  0 
  4  6  1  0  0  0  0 
  7  5  2  0  0  0  0 
  6  8  2  0  0  0  0 
  8  7  1  0  0  0  0 
  7  9  1  0  0  0  0 
M  END
> <Name>
Benzonitrile, 3-methyl-

> <Source>
DSSTox2DMolFile

> <Tox>
2.750

> <CAS>
620-22-4

$$$$

  CDK

  9  9  0  0  0  0  0  0  0  0999 V2000
    0.0000    0.0000    0.0000 O   0  0  0  0  0  0  0  0  0  0  0  0
    0.4970    0.8450    0.0000 C   0  0  0  0  0  0  0  0  0  0  0  0
    1.5408    0.8450    0.0000 C   0  0  0  0  0  0  0  0  0  0  0  0
    2.0378    1.7396    0.0000 C   0  0  0  0  0  0  0  0  0  0  0  0
    2.0378    0.0000    0.0000 C   0  0  0  0  0  0  0  0  0  0  0  0
    3.0319    1.7396    0.0000 C   0  0  0  0  0  0  0  0  0  0  0  0
    3.0319    0.0000    0.0000 C   0  0  0  0  0  0  0  0  0  0  0  0
    3.5289    2.5846    0.0000 C   0  0  0  0  0  0  0  0  0  0  0  0
    3.5289    0.8450    0.0000 C   0  0  0  0  0  0  0  0  0  0  0  0
  1  2  2  0  0  0  0 
  2  3  1  0  0  0  0 
  4  3  2  0  0  0  0 
  3  5  1  0  0  0  0 
  6  4  1  0  0  0  0 
  5  7  2  0  0  0  0 
  6  8  1  0  0  0  0 
  9  6  2  0  0  0  0 
  7  9  1  0  0  0  0 
M  END
> <Name>
Benzaldehyde, 3-methyl-

> <Source>
NIST2DMolFile

> <Tox>
3.081

> <CAS>
620-23-5

$$$$

  CDK

  9  9  0  0  0  0  0  0  0  0999 V2000
    0.0000    0.0000    0.0000 O   0  0  0  0  0  0  0  0  0  0  0  0
    0.4998    0.8496    0.0000 C   0  0  0  0  0  0  0  0  0  0  0  0
    1.4994    0.8496    0.0000 C   0  0  0  0  0  0  0  0  0  0  0  0
    1.9992    1.7493    0.0000 C   0  0  0  0  0  0  0  0  0  0  0  0
    1.9992    0.0000    0.0000 C   0  0  0  0  0  0  0  0  0  0  0  0
    2.9988    1.7493    0.0000 C   0  0  0  0  0  0  0  0  0  0  0  0
    2.9988    0.0000    0.0000 C   0  0  0  0  0  0  0  0  0  0  0  0
    3.4985    2.5989    0.0000 O   0  0  0  0  0  0  0  0  0  0  0  0
    3.4985    0.8496    0.0000 C   0  0  0  0  0  0  0  0  0  0  0  0
  1  2  1  0  0  0  0 
  2  3  1  0  0  0  0 
  4  3  2  0  0  0  0 
  3  5  1  0  0  0  0 
  6  4  1  0  0  0  0 
  5  7  2  0  0  0  0 
  6  8  1  0  0  0  0 
  9  6  2  0  0  0  0 
  7  9  1  0  0  0  0 
M  END
> <Name>
Benzyl alcohol, m-hydroxy- (8CI)

> <Source>
NIST2DMolFile

> <Tox>
1.980

> <CAS>
620-24-6

$$$$

  CDK

 11 11  0  0  0  0  0  0  0  0999 V2000
    0.8636    0.0000    0.0000 C   0  0  0  0  0  0  0  0  0  0  0  0
    1.7780    0.5080    0.0000 C   0  0  0  0  0  0  0  0  0  0  0  0
    0.0000    0.5080    0.0000 Br  0  0  0  0  0  0  0  0  0  0  0  0
    1.7780    1.4732    0.0000 O   0  0  0  0  0  0  0  0  0  0  0  0
    2.6416    0.0000    0.0000 O   0  0  0  0  0  0  0  0  0  0  0  0
    3.4544    0.5080    0.0000 C   0  0  0  0  0  0  0  0  0  0  0  0
    4.3688    0.0000    0.0000 C   0  0  0  0  0  0  0  0  0  0  0  0
    3.4544    1.4732    0.0000 C   0  0  0  0  0  0  0  0  0  0  0  0
    5.2324    0.5080    0.0000 C   0  0  0  0  0  0  0  0  0  0  0  0
    4.3688    1.9812    0.0000 C   0  0  0  0  0  0  0  0  0  0  0  0
    5.2324    1.4732    0.0000 C   0  0  0  0  0  0  0  0  0  0  0  0
  1  2  1  0  0  0  0 
  1  3  1  0  0  0  0 
  2  4  2  0  0  0  0 
  2  5  1  0  0  0  0 
  5  6  1  0  0  0  0 
  7  6  2  0  0  0  0 
  6  8  1  0  0  0  0 
  9  7  1  0  0  0  0 
  8 10  2  0  0  0  0 
 11  9  2  0  0  0  0 
 10 11  1  0  0  0  0 
M  END
> <Name>
Aceticacid, bromo-, phenyl ester (6CI,7CI,8CI,9CI)

> <Source>
NIST2DMolFile

> <Tox>
5.076

> <CAS>
620-72-4

$$$$

  CDK

 16 17  0  0  0  0  0  0  0  0999 V2000
    6.9072   -1.9893    0.0000 C   0  0  0  0  0  0  0  0  0  0  0  0
    8.0584   -1.3262    0.0000 C   0  0  0  0  0  0  0  0  0  0  0  0
    6.9072   -3.3247    0.0000 C   0  0  0  0  0  0  0  0  0  0  0  0
    9.2096   -1.9893    0.0000 C   0  0  0  0  0  0  0  0  0  0  0  0
    8.0584   -3.9878    0.0000 C   0  0  0  0  0  0  0  0  0  0  0  0
    5.7560   -3.9878    0.0000 O   0  0  0  0  0  0  0  0  0  0  0  0
    9.2096   -3.3247    0.0000 C   0  0  0  0  0  0  0  0  0  0  0  0
    4.6048   -3.3247    0.0000 C   0  0  0  0  0  0  0  0  0  0  0  0
    3.4536   -3.9878    0.0000 C   0  0  0  0  0  0  0  0  0  0  0  0
    4.6048   -1.9893    0.0000 C   0  0  0  0  0  0  0  0  0  0  0  0
    2.3024   -3.3247    0.0000 C   0  0  0  0  0  0  0  0  0  0  0  0
    3.4536   -1.3262    0.0000 C   0  0  0  0  0  0  0  0  0  0  0  0
    2.3024   -1.9893    0.0000 C   0  0  0  0  0  0  0  0  0  0  0  0
    1.1512   -1.3262    0.0000 N   0  0  0  0  0  0  0  0  0  0  0  0
    0.0000   -1.9893    0.0000 O   0  0  0  0  0  0  0  0  0  0  0  0
    1.1512   -0.0000    0.0000 O   0  0  0  0  0  0  0  0  0  0  0  0
  1  2  2  0  0  0  0 
  1  3  1  0  0  0  0 
  2  4  1  0  0  0  0 
  5  3  2  0  0  0  0 
  3  6  1  0  0  0  0 
  4  7  2  0  0  0  0 
  7  5  1  0  0  0  0 
  6  8  1  0  0  0  0 
  8  9  2  0  0  0  0 
  8 10  1  0  0  0  0 
  9 11  1  0  0  0  0 
 12 10  2  0  0  0  0 
 11 13  2  0  0  0  0 
 13 12  1  0  0  0  0 
 13 14  1  0  0  0  0 
 14 15  2  0  0  0  0 
 14 16  1  0  0  0  0 
M  CHG  1  14   1
M  CHG  1  16  -1
M  END
> <Name>
Ether, p-nitrophenyl phenyl (8CI)

> <Source>
DSSTox2DMolFile

> <Tox>
4.580

> <CAS>
620-88-2

$$$$

  CDK

 13 14  0  0  0  0  0  0  0  0999 V2000
    3.4730    1.4301    0.0000 C   0  0  0  0  0  0  0  0  0  0  0  0
    4.3924    1.9919    0.0000 C   0  0  0  0  0  0  0  0  0  0  0  0
    3.4730    0.5107    0.0000 C   0  0  0  0  0  0  0  0  0  0  0  0
    2.6558    1.9919    0.0000 C   0  0  0  0  0  0  0  0  0  0  0  0
    5.2606    1.4301    0.0000 C   0  0  0  0  0  0  0  0  0  0  0  0
    4.3924    0.0000    0.0000 N   0  0  0  0  0  0  0  0  0  0  0  0
    1.7365    1.4301    0.0000 C   0  0  0  0  0  0  0  0  0  0  0  0
    5.2606    0.5107    0.0000 C   0  0  0  0  0  0  0  0  0  0  0  0
    1.7365    0.5107    0.0000 C   0  0  0  0  0  0  0  0  0  0  0  0
    0.8683    1.9919    0.0000 C   0  0  0  0  0  0  0  0  0  0  0  0
    0.8683    0.0000    0.0000 C   0  0  0  0  0  0  0  0  0  0  0  0
    0.0000    1.4301    0.0000 C   0  0  0  0  0  0  0  0  0  0  0  0
    0.0000    0.5107    0.0000 C   0  0  0  0  0  0  0  0  0  0  0  0
  1  2  2  0  0  0  0 
  3  1  1  0  0  0  0 
  1  4  1  0  0  0  0 
  2  5  1  0  0  0  0 
  6  3  2  0  0  0  0 
  4  7  1  0  0  0  0 
  5  8  2  0  0  0  0 
  8  6  1  0  0  0  0 
  7  9  2  0  0  0  0 
 10  7  1  0  0  0  0 
  9 11  1  0  0  0  0 
 12 10  2  0  0  0  0 
 11 13  2  0  0  0  0 
 13 12  1  0  0  0  0 
M  END
> <Name>
3-Benzylpyridine

> <Source>
NIST2DMolFile

> <Tox>
3.680

> <CAS>
620-95-1

$$$$

  CDK

 11 11  0  0  0  0  0  0  0  0999 V2000
    6.9094   -2.6601    0.0000 O   0  0  0  0  0  0  0  0  0  0  0  0
    5.7555   -1.9968    0.0000 C   0  0  0  0  0  0  0  0  0  0  0  0
    4.6086   -2.6601    0.0000 C   0  0  0  0  0  0  0  0  0  0  0  0
    5.7555   -0.6633    0.0000 C   0  0  0  0  0  0  0  0  0  0  0  0
    3.4547   -1.9968    0.0000 C   0  0  0  0  0  0  0  0  0  0  0  0
    4.6086   -0.0000    0.0000 C   0  0  0  0  0  0  0  0  0  0  0  0
    2.3008   -2.6601    0.0000 N   0  0  0  0  0  0  0  0  0  0  0  0
    3.4547   -0.6633    0.0000 C   0  0  0  0  0  0  0  0  0  0  0  0
    1.1539   -1.9968    0.0000 C   0  0  0  0  0  0  0  0  0  0  0  0
    1.1539   -0.6633    0.0000 O   0  0  0  0  0  0  0  0  0  0  0  0
    0.0000   -2.6601    0.0000 C   0  0  0  0  0  0  0  0  0  0  0  0
  1  2  1  0  0  0  0 
  2  3  2  0  0  0  0 
  2  4  1  0  0  0  0 
  3  5  1  0  0  0  0 
  6  4  2  0  0  0  0 
  5  7  1  0  0  0  0 
  5  8  2  0  0  0  0 
  8  6  1  0  0  0  0 
  7  9  1  0  0  0  0 
  9 10  2  0  0  0  0 
  9 11  1  0  0  0  0 
M  END
> <Name>
Acetamide, N-(3-hydroxyphenyl)-

> <Source>
DSSTox2DMolFile

> <Tox>
2.840

> <CAS>
621-42-1

$$$$

  CDK

 11 11  0  0  0  0  0  0  0  0999 V2000
    4.4744    0.8547    0.0000 C   0  0  0  0  0  0  0  0  0  0  0  0
    4.9772    0.0000    0.0000 O   0  0  0  0  0  0  0  0  0  0  0  0
    3.5192    0.8547    0.0000 C   0  0  0  0  0  0  0  0  0  0  0  0
    3.0165    1.7596    0.0000 C   0  0  0  0  0  0  0  0  0  0  0  0
    3.0165    0.0000    0.0000 C   0  0  0  0  0  0  0  0  0  0  0  0
    2.0110    1.7596    0.0000 C   0  0  0  0  0  0  0  0  0  0  0  0
    2.0110    0.0000    0.0000 C   0  0  0  0  0  0  0  0  0  0  0  0
    1.5082    2.6143    0.0000 O   0  0  0  0  0  0  0  0  0  0  0  0
    1.5082    0.8547    0.0000 C   0  0  0  0  0  0  0  0  0  0  0  0
    0.5027    0.8547    0.0000 O   0  0  0  0  0  0  0  0  0  0  0  0
    0.0000    0.0000    0.0000 C   0  0  0  0  0  0  0  0  0  0  0  0
  1  2  2  0  0  0  0 
  1  3  1  0  0  0  0 
  3  4  2  0  0  0  0 
  5  3  1  0  0  0  0 
  4  6  1  0  0  0  0 
  7  5  2  0  0  0  0 
  6  8  1  0  0  0  0 
  6  9  2  0  0  0  0 
  9  7  1  0  0  0  0 
  9 10  1  0  0  0  0 
 10 11  1  0  0  0  0 
M  END
> <Name>
p-Anisaldehyde, 3-hydroxy- (8CI)

> <Source>
NIST2DMolFile

> <Tox>
2.860

> <CAS>
621-59-0

$$$$

  CDK

 11 11  0  0  0  0  0  0  0  0999 V2000
    3.9258    0.0756   -1.4853 S   0  0  0  0  0  0  0  0  0  0  0  0
    2.9527    0.0052   -0.1265 C   0  0  0  0  0  0  0  0  0  0  0  0
    1.5791    0.0440   -0.2238 N   0  0  0  0  0  0  0  0  0  0  0  0
    3.4918   -0.0950    1.1264 N   0  0  0  0  0  0  0  0  0  0  0  0
    0.6442   -0.0122    0.8711 C   0  0  0  0  0  0  0  0  0  0  0  0
   -0.7733   -0.0076    0.4072 C   0  0  0  0  0  0  0  0  0  0  0  0
   -1.4487    1.2016    0.2410 C   0  0  0  0  0  0  0  0  0  0  0  0
   -1.4236   -1.2122    0.1392 C   0  0  0  0  0  0  0  0  0  0  0  0
   -2.7743    1.2063   -0.1931 C   0  0  0  0  0  0  0  0  0  0  0  0
   -2.7492   -1.2075   -0.2950 C   0  0  0  0  0  0  0  0  0  0  0  0
   -3.4245    0.0018   -0.4611 C   0  0  0  0  0  0  0  0  0  0  0  0
  1  2  2  0  0  0  0 
  3  2  1  0  0  0  0 
  4  2  1  0  0  0  0 
  3  5  1  0  0  0  0 
  6  5  1  0  0  0  0 
  6  7  2  0  0  0  0 
  6  8  1  0  0  0  0 
  7  9  1  0  0  0  0 
  8 10  2  0  0  0  0 
  9 11  2  0  0  0  0 
 10 11  1  0  0  0  0 
M  END
> <Name>
benzylthiourea

> <Source>
Chemidplus3DMolFile

> <Tox>
3.660

> <CAS>
621-83-0

$$$$

  CDK

 11 11  0  0  0  0  0  0  0  0999 V2000
    1.5768    0.0000    0.0000 C   0  0  0  0  0  0  0  0  0  0  0  0
    2.0855    0.8647    0.0000 C   0  0  0  0  0  0  0  0  0  0  0  0
    0.5595    0.0000    0.0000 C   0  0  0  0  0  0  0  0  0  0  0  0
    1.5259    1.7294    0.0000 C   0  0  0  0  0  0  0  0  0  0  0  0
    3.0519    0.8647    0.0000 O   0  0  0  0  0  0  0  0  0  0  0  0
    0.0000    0.8647    0.0000 C   0  0  0  0  0  0  0  0  0  0  0  0
    0.5086    1.7294    0.0000 C   0  0  0  0  0  0  0  0  0  0  0  0
    3.8657    0.4069    0.0000 C   0  0  0  0  0  0  0  0  0  0  0  0
    4.7304    0.9156    0.0000 C   0  0  0  0  0  0  0  0  0  0  0  0
    4.7304    1.9329    0.0000 O   0  0  0  0  0  0  0  0  0  0  0  0
    5.5951    0.4578    0.0000 N   0  0  0  0  0  0  0  0  0  0  0  0
  2  1  2  0  0  0  0 
  1  3  1  0  0  0  0 
  4  2  1  0  0  0  0 
  2  5  1  0  0  0  0 
  3  6  2  0  0  0  0 
  7  4  2  0  0  0  0 
  5  8  1  0  0  0  0 
  6  7  1  0  0  0  0 
  8  9  1  0  0  0  0 
  9 10  2  0  0  0  0 
  9 11  1  0  0  0  0 
M  END
> <Name>
Acetamide, 2-phenoxy-

> <Source>
NIST2DMolFile

> <Tox>
2.270

> <CAS>
621-88-5

$$$$

  CDK

  9  9  0  0  0  0  0  0  0  0999 V2000
    0.0000    0.0000    0.0000 Cl  0  0  0  0  0  0  0  0  0  0  0  0
    0.5600    0.5000   -1.6200 C   0  0  0  0  0  0  0  0  0  0  0  0
   -0.6000    0.4200   -2.6000 C   0  0  0  0  0  0  0  0  0  0  0  0
   -1.2000   -0.9400   -2.6200 C   0  0  0  0  0  0  0  0  0  0  0  0
   -2.5600   -1.1200   -2.9200 C   0  0  0  0  0  0  0  0  0  0  0  0
   -0.4000   -2.0800   -2.3400 C   0  0  0  0  0  0  0  0  0  0  0  0
   -3.1400   -2.4000   -2.9400 C   0  0  0  0  0  0  0  0  0  0  0  0
   -0.9800   -3.3600   -2.3600 C   0  0  0  0  0  0  0  0  0  0  0  0
   -2.3400   -3.5200   -2.6600 C   0  0  0  0  0  0  0  0  0  0  0  0
  1  2  1  0  0  0  0 
  2  3  1  0  0  0  0 
  3  4  1  0  0  0  0 
  4  5  2  0  0  0  0 
  4  6  1  0  0  0  0 
  5  7  1  0  0  0  0 
  8  6  2  0  0  0  0 
  7  9  2  0  0  0  0 
  9  8  1  0  0  0  0 
M  END
> <Name>
1-chloro-2-ethylbenzene

> <Source>
NIH3DMolFile

> <Tox>
3.170

> <CAS>
622-24-2

$$$$

  CDK

  9  9  0  0  0  0  0  0  0  0999 V2000
    0.0000    0.8555    0.0000 N   0  0  0  0  0  0  0  0  0  0  0  0
    0.5032    1.7109    0.0000 C   0  0  0  0  0  0  0  0  0  0  0  0
    0.4529    0.0000    0.0000 O   0  0  0  0  0  0  0  0  0  0  0  0
    1.5600    1.7109    0.0000 C   0  0  0  0  0  0  0  0  0  0  0  0
    2.0632    2.5664    0.0000 C   0  0  0  0  0  0  0  0  0  0  0  0
    2.0632    0.8555    0.0000 C   0  0  0  0  0  0  0  0  0  0  0  0
    3.0696    2.5664    0.0000 C   0  0  0  0  0  0  0  0  0  0  0  0
    3.0696    0.8555    0.0000 C   0  0  0  0  0  0  0  0  0  0  0  0
    3.5728    1.7109    0.0000 C   0  0  0  0  0  0  0  0  0  0  0  0
  1  2  2  0  0  0  0 
  1  3  1  0  0  0  0 
  2  4  1  0  0  0  0 
  5  4  2  0  0  0  0 
  4  6  1  0  0  0  0 
  7  5  1  0  0  0  0 
  6  8  2  0  0  0  0 
  9  7  2  0  0  0  0 
  8  9  1  0  0  0  0 
M  END
> <Name>
Benzaldehyde, oxime, (Z)-

> <Source>
NIST2DMolFile

> <Tox>
2.890

> <CAS>
622-32-2

$$$$

  CDK

  9  9  0  0  0  0  0  0  0  0999 V2000
    1.0078    0.0000    0.0000 C   0  0  0  0  0  0  0  0  0  0  0  0
    1.5116    0.8566    0.0000 S   0  0  0  0  0  0  0  0  0  0  0  0
    0.0000    0.0000    0.0000 C   0  0  0  0  0  0  0  0  0  0  0  0
    2.5194    0.8566    0.0000 C   0  0  0  0  0  0  0  0  0  0  0  0
    3.0233    1.7132    0.0000 C   0  0  0  0  0  0  0  0  0  0  0  0
    3.0233    0.0000    0.0000 C   0  0  0  0  0  0  0  0  0  0  0  0
    4.0310    1.7132    0.0000 C   0  0  0  0  0  0  0  0  0  0  0  0
    4.0310    0.0000    0.0000 C   0  0  0  0  0  0  0  0  0  0  0  0
    4.5349    0.8566    0.0000 C   0  0  0  0  0  0  0  0  0  0  0  0
  1  2  1  0  0  0  0 
  1  3  1  0  0  0  0 
  2  4  1  0  0  0  0 
  5  4  2  0  0  0  0 
  4  6  1  0  0  0  0 
  7  5  1  0  0  0  0 
  6  8  2  0  0  0  0 
  9  7  2  0  0  0  0 
  8  9  1  0  0  0  0 
M  END
> <Name>
Sulfide, ethyl phenyl (8CI)

> <Source>
NIST2DMolFile

> <Tox>
3.300

> <CAS>
622-38-8

$$$$

  CDK

 10 10  0  0  0  0  0  0  0  0999 V2000
    0.9953    0.8460    0.0000 C   0  0  0  0  0  0  0  0  0  0  0  0
    1.4930    1.7418    0.0000 O   0  0  0  0  0  0  0  0  0  0  0  0
    1.4930    0.0000    0.0000 N   0  0  0  0  0  0  0  0  0  0  0  0
    0.0000    0.8460    0.0000 O   0  0  0  0  0  0  0  0  0  0  0  0
    2.4883    1.7418    0.0000 C   0  0  0  0  0  0  0  0  0  0  0  0
    2.9859    2.5878    0.0000 C   0  0  0  0  0  0  0  0  0  0  0  0
    2.9859    0.8460    0.0000 C   0  0  0  0  0  0  0  0  0  0  0  0
    3.9812    2.5878    0.0000 C   0  0  0  0  0  0  0  0  0  0  0  0
    3.9812    0.8460    0.0000 C   0  0  0  0  0  0  0  0  0  0  0  0
    4.4789    1.7418    0.0000 C   0  0  0  0  0  0  0  0  0  0  0  0
  1  2  1  0  0  0  0 
  1  3  1  0  0  0  0 
  1  4  2  0  0  0  0 
  2  5  1  0  0  0  0 
  6  5  2  0  0  0  0 
  5  7  1  0  0  0  0 
  8  6  1  0  0  0  0 
  7  9  2  0  0  0  0 
 10  8  2  0  0  0  0 
  9 10  1  0  0  0  0 
M  END
> <Name>
Carbamic acid, phenyl ester (8CI)(9CI)

> <Source>
NIST2DMolFile

> <Tox>
2.610

> <CAS>
622-46-8

$$$$

  CDK

 10 10  0  0  0  0  0  0  0  0999 V2000
    2.5881    1.4931    0.0000 C   0  0  0  0  0  0  0  0  0  0  0  0
    3.4342    1.9908    0.0000 C   0  0  0  0  0  0  0  0  0  0  0  0
    2.5881    0.4977    0.0000 C   0  0  0  0  0  0  0  0  0  0  0  0
    4.3300    1.5429    0.0000 C   0  0  0  0  0  0  0  0  0  0  0  0
    3.4342    0.0000    0.0000 C   0  0  0  0  0  0  0  0  0  0  0  0
    1.7420    0.0000    0.0000 O   0  0  0  0  0  0  0  0  0  0  0  0
    4.3300    0.4977    0.0000 C   0  0  0  0  0  0  0  0  0  0  0  0
    5.1761    2.0406    0.0000 O   0  0  0  0  0  0  0  0  0  0  0  0
    0.8461    0.4977    0.0000 C   0  0  0  0  0  0  0  0  0  0  0  0
    0.0000    0.0000    0.0000 C   0  0  0  0  0  0  0  0  0  0  0  0
  1  2  2  0  0  0  0 
  3  1  1  0  0  0  0 
  2  4  1  0  0  0  0 
  5  3  2  0  0  0  0 
  3  6  1  0  0  0  0 
  4  7  2  0  0  0  0 
  4  8  1  0  0  0  0 
  7  5  1  0  0  0  0 
  6  9  1  0  0  0  0 
  9 10  1  0  0  0  0 
M  END
> <Name>
Phenol, 4-ethoxy-

> <Source>
NIST2DMolFile

> <Tox>
3.010

> <CAS>
622-62-8

$$$$

  CDK

 10 10  0  0  0  0  0  0  0  0999 V2000
    7.3155   -2.3044    0.0000 S   0  0  0  0  0  0  0  0  0  0  0  0
    5.9841   -2.3044    0.0000 C   0  0  0  0  0  0  0  0  0  0  0  0
    4.6526   -2.3044    0.0000 N   0  0  0  0  0  0  0  0  0  0  0  0
    3.9869   -1.1558    0.0000 C   0  0  0  0  0  0  0  0  0  0  0  0
    2.6628   -1.1558    0.0000 C   0  0  0  0  0  0  0  0  0  0  0  0
    1.9971   -2.3044    0.0000 C   0  0  0  0  0  0  0  0  0  0  0  0
    1.9971   -0.0000    0.0000 C   0  0  0  0  0  0  0  0  0  0  0  0
    0.6657   -2.3044    0.0000 C   0  0  0  0  0  0  0  0  0  0  0  0
    0.6657   -0.0000    0.0000 C   0  0  0  0  0  0  0  0  0  0  0  0
    0.0000   -1.1558    0.0000 C   0  0  0  0  0  0  0  0  0  0  0  0
  1  2  2  0  0  0  0 
  2  3  2  0  0  0  0 
  3  4  1  0  0  0  0 
  4  5  1  0  0  0  0 
  5  6  2  0  0  0  0 
  5  7  1  0  0  0  0 
  6  8  1  0  0  0  0 
  9  7  2  0  0  0  0 
  8 10  2  0  0  0  0 
 10  9  1  0  0  0  0 
M  END
> <Name>
Benzene, (isothiocyanatomethyl)-

> <Source>
DSSTox2DMolFile

> <Tox>
5.740

> <CAS>
622-78-6

$$$$

  CDK

  9  9  0  0  0  0  0  0  0  0999 V2000
    0.8491    1.4983    0.0000 C   0  0  0  0  0  0  0  0  0  0  0  0
    1.7481    1.9978    0.0000 C   0  0  0  0  0  0  0  0  0  0  0  0
    0.8491    0.4994    0.0000 C   0  0  0  0  0  0  0  0  0  0  0  0
    2.5971    1.4983    0.0000 C   0  0  0  0  0  0  0  0  0  0  0  0
    1.7481    0.0000    0.0000 C   0  0  0  0  0  0  0  0  0  0  0  0
    0.0000    0.0000    0.0000 Cl  0  0  0  0  0  0  0  0  0  0  0  0
    2.5971    0.4994    0.0000 C   0  0  0  0  0  0  0  0  0  0  0  0
    3.4462    1.9978    0.0000 C   0  0  0  0  0  0  0  0  0  0  0  0
    4.3452    2.4473    0.0000 N   0  0  0  0  0  0  0  0  0  0  0  0
  1  2  2  0  0  0  0 
  3  1  1  0  0  0  0 
  2  4  1  0  0  0  0 
  5  3  2  0  0  0  0 
  3  6  1  0  0  0  0 
  4  7  2  0  0  0  0 
  4  8  1  0  0  0  0 
  7  5  1  0  0  0  0 
  8  9  3  0  0  0  0 
M  END
> <Name>
4-chlorobenzonitrile

> <Source>
NIST2DMolFile

> <Tox>
3.000

> <CAS>
623-03-0

$$$$

  CDK

  9  9  0  0  0  0  0  0  0  0999 V2000
    0.0000    0.0000    0.0000 C   0  0  0  0  0  0  0  0  0  0  0  0
    0.5039    0.8566    0.0000 O   0  0  0  0  0  0  0  0  0  0  0  0
    1.5116    0.8566    0.0000 C   0  0  0  0  0  0  0  0  0  0  0  0
    2.0155    1.7132    0.0000 C   0  0  0  0  0  0  0  0  0  0  0  0
    2.0155    0.0000    0.0000 C   0  0  0  0  0  0  0  0  0  0  0  0
    3.0233    1.7132    0.0000 C   0  0  0  0  0  0  0  0  0  0  0  0
    3.0233    0.0000    0.0000 C   0  0  0  0  0  0  0  0  0  0  0  0
    3.5271    0.8566    0.0000 C   0  0  0  0  0  0  0  0  0  0  0  0
    4.5349    0.8566    0.0000 Cl  0  0  0  0  0  0  0  0  0  0  0  0
  1  2  1  0  0  0  0 
  2  3  1  0  0  0  0 
  4  3  2  0  0  0  0 
  3  5  1  0  0  0  0 
  6  4  1  0  0  0  0 
  5  7  2  0  0  0  0 
  8  6  2  0  0  0  0 
  7  8  1  0  0  0  0 
  8  9  1  0  0  0  0 
M  END
> <Name>
Anisole, p-chloro- (8CI)

> <Source>
NIST2DMolFile

> <Tox>
3.600

> <CAS>
623-12-1

$$$$

  CDK

 10 10  0  0  0  0  0  0  0  0999 V2000
    0.0000    0.0000    0.0000 O   0  0  0  0  0  0  0  0  0  0  0  0
    0.5017    0.8528    0.0000 C   0  0  0  0  0  0  0  0  0  0  0  0
    1.5551    0.8528    0.0000 C   0  0  0  0  0  0  0  0  0  0  0  0
    2.0568    1.7056    0.0000 C   0  0  0  0  0  0  0  0  0  0  0  0
    2.0568    0.0000    0.0000 C   0  0  0  0  0  0  0  0  0  0  0  0
    3.0601    1.7056    0.0000 C   0  0  0  0  0  0  0  0  0  0  0  0
    3.0601    0.0000    0.0000 C   0  0  0  0  0  0  0  0  0  0  0  0
    3.5618    0.8528    0.0000 C   0  0  0  0  0  0  0  0  0  0  0  0
    4.5651    0.8528    0.0000 C   0  0  0  0  0  0  0  0  0  0  0  0
    5.0668    1.7056    0.0000 O   0  0  0  0  0  0  0  0  0  0  0  0
  1  2  2  0  0  0  0 
  2  3  1  0  0  0  0 
  4  3  2  0  0  0  0 
  3  5  1  0  0  0  0 
  6  4  1  0  0  0  0 
  5  7  2  0  0  0  0 
  8  6  2  0  0  0  0 
  7  8  1  0  0  0  0 
  8  9  1  0  0  0  0 
  9 10  2  0  0  0  0 
M  END
> <Name>
Terephthaladehyde (8CI)

> <Source>
NIST2DMolFile

> <Tox>
2.914

> <CAS>
623-27-8

$$$$

  CDK

  7  6  0  0  0  0  0  0  0  0999 V2000
    1.7112    0.7656   -0.0391 C   0  0  0  0  0  0  0  0  0  0  0  0
    0.5043   -0.1042   -0.0786 C   0  0  0  0  0  0  0  0  0  0  0  0
    2.8324    0.3549    0.1574 O   0  0  0  0  0  0  0  0  0  0  0  0
   -0.6930    0.4689   -0.2786 C   0  0  0  0  0  0  0  0  0  0  0  0
    0.6941   -1.5641    0.1039 C   0  0  0  0  0  0  0  0  0  0  0  0
   -1.9777   -0.2729   -0.3575 C   0  0  0  0  0  0  0  0  0  0  0  0
   -3.0737    0.4274    0.4154 C   0  0  0  0  0  0  0  0  0  0  0  0
  1  2  1  0  0  0  0 
  1  3  2  0  0  0  0 
  2  4  2  0  0  0  0 
  2  5  1  0  0  0  0 
  4  6  1  0  0  0  0 
  6  7  1  0  0  0  0 
M  END
> <Name>
2-Pentenal, 2-methyl-

> <Source>
DougDB3DMolFile

> <Tox>
2.980

> <CAS>
623-36-9

$$$$

  CDK

  7  6  0  0  0  0  0  0  0  0999 V2000
    1.7073    0.0000    0.0000 C   0  0  0  0  0  0  0  0  0  0  0  0
    2.6112    0.5022    0.0000 C   0  0  0  0  0  0  0  0  0  0  0  0
    0.8537    0.5022    0.0000 C   0  0  0  0  0  0  0  0  0  0  0  0
    3.4649    0.0000    0.0000 C   0  0  0  0  0  0  0  0  0  0  0  0
    2.6112    1.5065    0.0000 O   0  0  0  0  0  0  0  0  0  0  0  0
    0.0000    0.0000    0.0000 C   0  0  0  0  0  0  0  0  0  0  0  0
    4.3186    0.5022    0.0000 C   0  0  0  0  0  0  0  0  0  0  0  0
  1  2  1  0  0  0  0 
  1  3  1  0  0  0  0 
  2  4  1  0  0  0  0 
  2  5  1  0  0  0  0 
  3  6  1  0  0  0  0 
  4  7  1  0  0  0  0 
M  END
> <Name>
hexan-3-ol

> <Source>
NIST2DMolFile

> <Tox>
2.150

> <CAS>
623-37-0

$$$$

  CDK

  7  6  0  0  0  0  0  0  0  0999 V2000
    1.7073    0.0000    0.0000 C   0  0  0  0  0  0  0  0  0  0  0  0
    2.6112    0.5022    0.0000 C   0  0  0  0  0  0  0  0  0  0  0  0
    0.8537    0.5022    0.0000 C   0  0  0  0  0  0  0  0  0  0  0  0
    3.4649    0.0000    0.0000 O   0  0  0  0  0  0  0  0  0  0  0  0
    2.6112    1.5065    0.0000 O   0  0  0  0  0  0  0  0  0  0  0  0
    0.0000    0.0000    0.0000 C   0  0  0  0  0  0  0  0  0  0  0  0
    4.3186    0.5022    0.0000 C   0  0  0  0  0  0  0  0  0  0  0  0
  1  2  1  0  0  0  0 
  1  3  1  0  0  0  0 
  2  4  1  0  0  0  0 
  2  5  2  0  0  0  0 
  3  6  1  0  0  0  0 
  4  7  1  0  0  0  0 
M  END
> <Name>
Butanoic acid, methyl ester

> <Source>
NIST2DMolFile

> <Tox>
1.754

> <CAS>
623-42-7

$$$$

  CDK

  7  6  0  0  0  0  0  0  0  0999 V2000
    2.6109    1.5565    0.0000 C   0  0  0  0  0  0  0  0  0  0  0  0
    1.7071    1.0042    0.0000 C   0  0  0  0  0  0  0  0  0  0  0  0
    3.4644    1.0544    0.0000 C   0  0  0  0  0  0  0  0  0  0  0  0
    0.8536    1.5063    0.0000 O   0  0  0  0  0  0  0  0  0  0  0  0
    1.7071    0.0000    0.0000 O   0  0  0  0  0  0  0  0  0  0  0  0
    4.3180    1.5063    0.0000 C   0  0  0  0  0  0  0  0  0  0  0  0
    0.0000    1.0042    0.0000 C   0  0  0  0  0  0  0  0  0  0  0  0
  1  2  1  0  0  0  0 
  1  3  2  0  0  0  0 
  2  4  1  0  0  0  0 
  2  5  2  0  0  0  0 
  3  6  1  0  0  0  0 
  4  7  1  0  0  0  0 
M  END
> <Name>
2-Butenoic acid, methyl ester, (2E)-

> <Source>
NIST2DMolFile

> <Tox>
2.080

> <CAS>
623-43-8

$$$$

  CDK

  7  6  0  0  0  0  0  0  0  0999 V2000
    1.7218    1.0128    0.0000 C   0  0  0  0  0  0  0  0  0  0  0  0
    2.5826    0.5064    0.0000 O   0  0  0  0  0  0  0  0  0  0  0  0
    1.7218    1.9750    0.0000 O   0  0  0  0  0  0  0  0  0  0  0  0
    0.8609    0.5064    0.0000 C   0  0  0  0  0  0  0  0  0  0  0  0
    3.4435    1.0128    0.0000 C   0  0  0  0  0  0  0  0  0  0  0  0
    0.0000    0.0000    0.0000 C   0  0  0  0  0  0  0  0  0  0  0  0
    4.3550    0.5064    0.0000 C   0  0  0  0  0  0  0  0  0  0  0  0
  1  2  1  0  0  0  0 
  1  3  2  0  0  0  0 
  1  4  1  0  0  0  0 
  2  5  1  0  0  0  0 
  4  6  3  0  0  0  0 
  5  7  1  0  0  0  0 
M  END
> <Name>
ethyl prop-2-ynoate

> <Source>
NIST2DMolFile

> <Tox>
4.700

> <CAS>
623-47-2

$$$$

  CDK

  7  6  0  0  0  0  0  0  0  0999 V2000
   -1.2528   -1.1644   -0.0627 C   0  0  0  0  0  0  0  0  0  0  0  0
    0.1778   -1.3939   -0.4510 C   0  0  0  0  0  0  0  0  0  0  0  0
   -2.0475   -2.0185    0.2861 O   0  0  0  0  0  0  0  0  0  0  0  0
   -1.6442    0.1333   -0.1577 O   0  0  0  0  0  0  0  0  0  0  0  0
    1.2773    0.2289    0.0407 I   0  0  0  0  0  0  0  0  0  0  0  0
   -3.0132    0.4468    0.1251 C   0  0  0  0  0  0  0  0  0  0  0  0
   -3.1699    1.9377   -0.1012 C   0  0  0  0  0  0  0  0  0  0  0  0
  1  2  1  0  0  0  0 
  1  3  2  0  0  0  0 
  1  4  1  0  0  0  0 
  2  5  1  0  0  0  0 
  4  6  1  0  0  0  0 
  6  7  1  0  0  0  0 
M  END
> <Name>
Acetic acid, iodo-, ethyl ester

> <Source>
DougDB3DMolFile

> <Tox>
5.921

> <CAS>
623-48-3

$$$$

  CDK

  8  7  0  0  0  0  0  0  0  0999 V2000
    0.0000    1.4688    0.0000 Cl  0  0  0  0  0  0  0  0  0  0  0  0
    0.8610    0.9623    0.0000 C   0  0  0  0  0  0  0  0  0  0  0  0
    1.7221    1.4688    0.0000 C   0  0  0  0  0  0  0  0  0  0  0  0
    2.5831    0.9623    0.0000 C   0  0  0  0  0  0  0  0  0  0  0  0
    3.4441    1.4688    0.0000 O   0  0  0  0  0  0  0  0  0  0  0  0
    2.5831    0.0000    0.0000 O   0  0  0  0  0  0  0  0  0  0  0  0
    4.3051    0.9623    0.0000 C   0  0  0  0  0  0  0  0  0  0  0  0
    5.2168    1.4688    0.0000 C   0  0  0  0  0  0  0  0  0  0  0  0
  1  2  1  0  0  0  0 
  2  3  1  0  0  0  0 
  3  4  1  0  0  0  0 
  4  5  1  0  0  0  0 
  4  6  2  0  0  0  0 
  5  7  1  0  0  0  0 
  7  8  1  0  0  0  0 
M  END
> <Name>
Propionic acid, 3-chloro-, ethyl ester (8CI)

> <Source>
NIST2DMolFile

> <Tox>
2.502

> <CAS>
623-71-2

$$$$

  CDK

  8  7  0  0  0  0  0  0  0  0999 V2000
    1.7646    2.9746    0.0000 O   0  0  0  0  0  0  0  0  0  0  0  0
    1.7646    1.9663    0.0000 S   0  0  0  0  0  0  0  0  0  0  0  0
    0.9075    1.4621    0.0000 O   0  0  0  0  0  0  0  0  0  0  0  0
    2.5713    1.4621    0.0000 O   0  0  0  0  0  0  0  0  0  0  0  0
    0.9075    0.4538    0.0000 C   0  0  0  0  0  0  0  0  0  0  0  0
    2.5713    0.4538    0.0000 C   0  0  0  0  0  0  0  0  0  0  0  0
    0.0000    0.0000    0.0000 C   0  0  0  0  0  0  0  0  0  0  0  0
    3.4788    0.0000    0.0000 C   0  0  0  0  0  0  0  0  0  0  0  0
  1  2  2  0  0  0  0 
  2  3  1  0  0  0  0 
  2  4  1  0  0  0  0 
  3  5  1  0  0  0  0 
  4  6  1  0  0  0  0 
  5  7  1  0  0  0  0 
  6  8  1  0  0  0  0 
M  END
> <Name>
Sulfurous acid, diethyl ester

> <Source>
NIST2DMolFile

> <Tox>
2.010

> <CAS>
623-81-4

$$$$

  CDK

 10  9  0  0  0  0  0  0  0  0999 V2000
    4.3115    1.5040    0.0000 O   0  0  0  0  0  0  0  0  0  0  0  0
    3.4592    1.0027    0.0000 S   0  0  0  0  0  0  0  0  0  0  0  0
    5.2139    1.0027    0.0000 C   0  0  0  0  0  0  0  0  0  0  0  0
    2.6069    1.5040    0.0000 O   0  0  0  0  0  0  0  0  0  0  0  0
    3.4592    0.0000    0.0000 O   0  0  0  0  0  0  0  0  0  0  0  0
    6.0661    1.5040    0.0000 C   0  0  0  0  0  0  0  0  0  0  0  0
    1.7045    1.0027    0.0000 C   0  0  0  0  0  0  0  0  0  0  0  0
    6.9184    1.0027    0.0000 C   0  0  0  0  0  0  0  0  0  0  0  0
    0.8523    1.5040    0.0000 C   0  0  0  0  0  0  0  0  0  0  0  0
    0.0000    1.0027    0.0000 C   0  0  0  0  0  0  0  0  0  0  0  0
  1  2  1  0  0  0  0 
  1  3  1  0  0  0  0 
  2  4  1  0  0  0  0 
  2  5  2  0  0  0  0 
  3  6  1  0  0  0  0 
  4  7  1  0  0  0  0 
  6  8  1  0  0  0  0 
  7  9  1  0  0  0  0 
  9 10  1  0  0  0  0 
M  END
> <Name>
Di-n-propyl sulphite

> <Source>
NIST2DMolFile

> <Tox>
3.086

> <CAS>
623-98-3

$$$$

  CDK

  8  7  0  0  0  0  0  0  0  0999 V2000
    0.0000    0.9725    0.0000 C   0  0  0  0  0  0  0  0  0  0  0  0
    0.8701    1.4843    0.0000 C   0  0  0  0  0  0  0  0  0  0  0  0
    1.7402    0.9725    0.0000 C   0  0  0  0  0  0  0  0  0  0  0  0
    2.6615    1.4331    0.0000 C   0  0  0  0  0  0  0  0  0  0  0  0
    3.5316    0.9725    0.0000 C   0  0  0  0  0  0  0  0  0  0  0  0
    4.4017    1.4331    0.0000 C   0  0  0  0  0  0  0  0  0  0  0  0
    3.5316    0.0000    0.0000 Br  0  0  0  0  0  0  0  0  0  0  0  0
    5.2718    0.9213    0.0000 Br  0  0  0  0  0  0  0  0  0  0  0  0
  1  2  1  0  0  0  0 
  2  3  1  0  0  0  0 
  3  4  1  0  0  0  0 
  4  5  1  0  0  0  0 
  5  6  1  0  0  0  0 
  5  7  1  0  0  0  0 
  6  8  1  0  0  0  0 
M  END
> <Name>
Hexane, 1,2-dibromo-

> <Source>
NIST2DMolFile

> <Tox>
4.146

> <CAS>
624-20-4

$$$$

  CDK

  8  7  0  0  0  0  0  0  0  0999 V2000
    2.5986    0.0000    0.0000 C   0  0  0  0  0  0  0  0  0  0  0  0
    3.4482    0.4997    0.0000 C   0  0  0  0  0  0  0  0  0  0  0  0
    1.7491    0.4997    0.0000 C   0  0  0  0  0  0  0  0  0  0  0  0
    4.3477    0.0000    0.0000 O   0  0  0  0  0  0  0  0  0  0  0  0
    3.4482    1.4992    0.0000 O   0  0  0  0  0  0  0  0  0  0  0  0
    0.8495    0.0000    0.0000 C   0  0  0  0  0  0  0  0  0  0  0  0
    5.1972    0.4997    0.0000 C   0  0  0  0  0  0  0  0  0  0  0  0
    0.0000    0.4997    0.0000 C   0  0  0  0  0  0  0  0  0  0  0  0
  1  2  1  0  0  0  0 
  1  3  1  0  0  0  0 
  2  4  1  0  0  0  0 
  2  5  2  0  0  0  0 
  3  6  1  0  0  0  0 
  4  7  1  0  0  0  0 
  6  8  1  0  0  0  0 
M  END
> <Name>
Pentanoic acid, methyl ester

> <Source>
NIST2DMolFile

> <Tox>
2.155

> <CAS>
624-24-8

$$$$

  CDK

 10  9  0  0  0  0  0  0  0  0999 V2000
    2.6069    1.5040    0.0000 C   0  0  0  0  0  0  0  0  0  0  0  0
    1.7045    1.0027    0.0000 C   0  0  0  0  0  0  0  0  0  0  0  0
    3.4592    1.0027    0.0000 C   0  0  0  0  0  0  0  0  0  0  0  0
    0.8523    1.5040    0.0000 C   0  0  0  0  0  0  0  0  0  0  0  0
    1.7045    0.0000    0.0000 O   0  0  0  0  0  0  0  0  0  0  0  0
    4.3115    1.5040    0.0000 C   0  0  0  0  0  0  0  0  0  0  0  0
    0.0000    1.0027    0.0000 C   0  0  0  0  0  0  0  0  0  0  0  0
    5.2139    1.0027    0.0000 C   0  0  0  0  0  0  0  0  0  0  0  0
    6.0661    1.5040    0.0000 C   0  0  0  0  0  0  0  0  0  0  0  0
    6.9184    1.0027    0.0000 C   0  0  0  0  0  0  0  0  0  0  0  0
  1  2  1  0  0  0  0 
  1  3  1  0  0  0  0 
  2  4  1  0  0  0  0 
  2  5  1  0  0  0  0 
  3  6  1  0  0  0  0 
  4  7  1  0  0  0  0 
  6  8  1  0  0  0  0 
  8  9  1  0  0  0  0 
  9 10  1  0  0  0  0 
M  END
> <Name>
nonan-3-ol

> <Source>
NIST2DMolFile

> <Tox>
3.360

> <CAS>
624-51-1

$$$$

  CDK

 10  9  0  0  0  0  0  0  0  0999 V2000
    2.6069    1.5040    0.0000 O   0  0  0  0  0  0  0  0  0  0  0  0
    1.7045    1.0027    0.0000 C   0  0  0  0  0  0  0  0  0  0  0  0
    3.4592    1.0027    0.0000 C   0  0  0  0  0  0  0  0  0  0  0  0
    0.8523    1.5040    0.0000 C   0  0  0  0  0  0  0  0  0  0  0  0
    1.7045    0.0000    0.0000 O   0  0  0  0  0  0  0  0  0  0  0  0
    4.3115    1.5040    0.0000 C   0  0  0  0  0  0  0  0  0  0  0  0
    0.0000    1.0027    0.0000 C   0  0  0  0  0  0  0  0  0  0  0  0
    5.2139    1.0027    0.0000 C   0  0  0  0  0  0  0  0  0  0  0  0
    6.0661    1.5040    0.0000 C   0  0  0  0  0  0  0  0  0  0  0  0
    6.9184    1.0027    0.0000 C   0  0  0  0  0  0  0  0  0  0  0  0
  1  2  1  0  0  0  0 
  1  3  1  0  0  0  0 
  2  4  1  0  0  0  0 
  2  5  2  0  0  0  0 
  3  6  1  0  0  0  0 
  4  7  1  0  0  0  0 
  6  8  1  0  0  0  0 
  8  9  1  0  0  0  0 
  9 10  1  0  0  0  0 
M  END
> <Name>
Propionic acid, pentyl ester (6CI,7CI,8CI)

> <Source>
NIST2DMolFile

> <Tox>
2.957

> <CAS>
624-54-4

$$$$

  CDK

  4  3  0  0  0  0  0  0  0  0999 V2000
    3.4575   -0.0000    0.0000 O   0  0  0  0  0  0  0  0  0  0  0  0
    2.3061   -0.6638    0.0000 C   0  0  0  0  0  0  0  0  0  0  0  0
    1.1513   -0.0000    0.0000 N   0  0  0  0  0  0  0  0  0  0  0  0
    0.0000   -0.6638    0.0000 N   0  0  0  0  0  0  0  0  0  0  0  0
  1  2  2  0  0  0  0 
  2  3  1  0  0  0  0 
  3  4  1  0  0  0  0 
M  END
> <Name>
Hydrazinecarboxaldehyde

> <Source>
DSSTox2DMolFile

> <Tox>
2.129

> <CAS>
624-84-0

$$$$

  CDK

  7  6  0  0  0  0  0  0  0  0999 V2000
    1.7489    1.3492    0.0000 C   0  0  0  0  0  0  0  0  0  0  0  0
    0.8994    0.8495    0.0000 C   0  0  0  0  0  0  0  0  0  0  0  0
    2.5984    0.8495    0.0000 C   0  0  0  0  0  0  0  0  0  0  0  0
    0.3998    1.6989    0.0000 C   0  0  0  0  0  0  0  0  0  0  0  0
    1.3991    0.0000    0.0000 C   0  0  0  0  0  0  0  0  0  0  0  0
    0.0000    0.3498    0.0000 C   0  0  0  0  0  0  0  0  0  0  0  0
    3.4978    1.3492    0.0000 O   0  0  0  0  0  0  0  0  0  0  0  0
  1  2  1  0  0  0  0 
  1  3  1  0  0  0  0 
  2  4  1  0  0  0  0 
  2  5  1  0  0  0  0 
  2  6  1  0  0  0  0 
  3  7  1  0  0  0  0 
M  END
> <Name>
1-Butanol, 3,3-dimethyl-

> <Source>
NIST2DMolFile

> <Tox>
2.263

> <CAS>
624-95-3

$$$$

  CDK

  6  5  0  0  0  0  0  0  0  0999 V2000
    3.4551   -0.0000    0.0000 C   0  0  0  0  0  0  0  0  0  0  0  0
    3.4551   -1.3314    0.0000 C   0  0  0  0  0  0  0  0  0  0  0  0
    4.6068   -1.9947    0.0000 C   0  0  0  0  0  0  0  0  0  0  0  0
    2.3034   -1.9947    0.0000 C   0  0  0  0  0  0  0  0  0  0  0  0
    1.1517   -1.3314    0.0000 C   0  0  0  0  0  0  0  0  0  0  0  0
    0.0000   -0.6634    0.0000 N   0  0  0  0  0  0  0  0  0  0  0  0
  1  2  1  0  0  0  0 
  2  3  1  0  0  0  0 
  2  4  1  0  0  0  0 
  4  5  1  0  0  0  0 
  5  6  3  0  0  0  0 
M  END
> <Name>
Butanenitrile, 3-methyl-

> <Source>
DSSTox2DMolFile

> <Tox>
2.124

> <CAS>
625-28-5

$$$$

  CDK

  6  5  0  0  0  0  0  0  0  0999 V2000
    1.7391    1.4906    0.0000 C   0  0  0  0  0  0  0  0  0  0  0  0
    2.5838    0.9938    0.0000 C   0  0  0  0  0  0  0  0  0  0  0  0
    0.8944    0.9938    0.0000 C   0  0  0  0  0  0  0  0  0  0  0  0
    2.5838    0.0000    0.0000 C   0  0  0  0  0  0  0  0  0  0  0  0
    3.4781    1.4906    0.0000 N   0  0  0  0  0  0  0  0  0  0  0  0
    0.0000    1.4906    0.0000 C   0  0  0  0  0  0  0  0  0  0  0  0
  1  2  1  0  0  0  0 
  1  3  1  0  0  0  0 
  2  4  1  0  0  0  0 
  2  5  1  0  0  0  0 
  3  6  1  0  0  0  0 
M  END
> <Name>
2-Pentanamine

> <Source>
NIST2DMolFile

> <Tox>
2.315

> <CAS>
625-30-9

$$$$

  CDK

  6  5  0  0  0  0  0  0  0  0999 V2000
    1.7475    1.4979    0.0000 C   0  0  0  0  0  0  0  0  0  0  0  0
    2.5963    0.9986    0.0000 C   0  0  0  0  0  0  0  0  0  0  0  0
    0.8987    1.0485    0.0000 C   0  0  0  0  0  0  0  0  0  0  0  0
    2.5963    0.0000    0.0000 C   0  0  0  0  0  0  0  0  0  0  0  0
    3.4951    1.4979    0.0000 O   0  0  0  0  0  0  0  0  0  0  0  0
    0.0000    1.5478    0.0000 C   0  0  0  0  0  0  0  0  0  0  0  0
  1  2  1  0  0  0  0 
  1  3  1  0  0  0  0 
  2  4  1  0  0  0  0 
  2  5  1  0  0  0  0 
  3  6  2  0  0  0  0 
M  END
> <Name>
4-Penten-2-ol

> <Source>
NIST2DMolFile

> <Tox>
1.483

> <CAS>
625-31-0

$$$$

  CDK

  6  5  0  0  0  0  0  0  0  0999 V2000
   -1.4109    1.3489   -0.0093 C   0  0  0  0  0  0  0  0  0  0  0  0
   -1.0763   -0.1190   -0.0034 C   0  0  0  0  0  0  0  0  0  0  0  0
    0.3520   -0.5258   -0.0235 C   0  0  0  0  0  0  0  0  0  0  0  0
   -1.9524   -0.9667    0.0157 O   0  0  0  0  0  0  0  0  0  0  0  0
    1.3772    0.3287    0.0189 C   0  0  0  0  0  0  0  0  0  0  0  0
    2.7888   -0.1117    0.0002 C   0  0  0  0  0  0  0  0  0  0  0  0
  1  2  1  0  0  0  0 
  2  3  1  0  0  0  0 
  2  4  2  0  0  0  0 
  3  5  2  0  0  0  0 
  5  6  1  0  0  0  0 
M  END
> <Name>
3-Penten-2-one

> <Source>
DougDB3DMolFile

> <Tox>
3.540

> <CAS>
625-33-2

$$$$

  CDK

  6  5  0  0  0  0  0  0  0  0999 V2000
    1.7475    0.0499    0.0000 C   0  0  0  0  0  0  0  0  0  0  0  0
    2.5963    0.5492    0.0000 C   0  0  0  0  0  0  0  0  0  0  0  0
    0.8987    0.4993    0.0000 C   0  0  0  0  0  0  0  0  0  0  0  0
    2.5963    1.5478    0.0000 O   0  0  0  0  0  0  0  0  0  0  0  0
    3.4951    0.0499    0.0000 O   0  0  0  0  0  0  0  0  0  0  0  0
    0.0000    0.0000    0.0000 C   0  0  0  0  0  0  0  0  0  0  0  0
  1  2  1  0  0  0  0 
  1  3  1  0  0  0  0 
  2  4  1  0  0  0  0 
  2  5  2  0  0  0  0 
  3  6  2  0  0  0  0 
M  END
> <Name>
But-3-enoic acid

> <Source>
NIST2DMolFile

> <Tox>
2.358

> <CAS>
625-38-7

$$$$

  CDK

  6  5  0  0  0  0  0  0  0  0999 V2000
    0.0000    0.0000    0.0000 C   0  0  0  0  0  0  0  0  0  0  0  0
    0.8944    0.4969    0.0000 C   0  0  0  0  0  0  0  0  0  0  0  0
    1.7391    0.0000    0.0000 N   0  0  0  0  0  0  0  0  0  0  0  0
    0.8944    1.4906    0.0000 O   0  0  0  0  0  0  0  0  0  0  0  0
    2.5838    0.4969    0.0000 C   0  0  0  0  0  0  0  0  0  0  0  0
    3.4781    0.0000    0.0000 C   0  0  0  0  0  0  0  0  0  0  0  0
  1  2  1  0  0  0  0 
  2  3  1  0  0  0  0 
  2  4  2  0  0  0  0 
  3  5  1  0  0  0  0 
  5  6  1  0  0  0  0 
M  END
> <Name>
N-ethylacetamide

> <Source>
NIST2DMolFile

> <Tox>
1.299

> <CAS>
625-50-3

$$$$

  CDK

  6  5  0  0  0  0  0  0  0  0999 V2000
    1.7391    1.4906    0.0000 N   0  0  0  0  0  0  0  0  0  0  0  0
    0.8944    0.9938    0.0000 C   0  0  0  0  0  0  0  0  0  0  0  0
    2.5838    0.9938    0.0000 C   0  0  0  0  0  0  0  0  0  0  0  0
    0.8944    0.0000    0.0000 N   0  0  0  0  0  0  0  0  0  0  0  0
    0.0000    1.4906    0.0000 S   0  0  0  0  0  0  0  0  0  0  0  0
    3.4781    1.4906    0.0000 C   0  0  0  0  0  0  0  0  0  0  0  0
  1  2  1  0  0  0  0 
  1  3  1  0  0  0  0 
  2  4  1  0  0  0  0 
  2  5  2  0  0  0  0 
  3  6  1  0  0  0  0 
M  END
> <Name>
Urea, 1-ethyl-2-thio-

> <Source>
NIST2DMolFile

> <Tox>
1.870

> <CAS>
625-53-6

$$$$

  CDK

  7  7  0  0  0  0  0  0  0  0999 V2000
    2.3417   -2.1548    0.0000 O   0  0  0  0  0  0  0  0  0  0  0  0
    1.0774   -1.7407    0.0000 C   0  0  0  0  0  0  0  0  0  0  0  0
    3.1208   -1.0774    0.0000 C   0  0  0  0  0  0  0  0  0  0  0  0
    0.0000   -2.5243    0.0000 C   0  0  0  0  0  0  0  0  0  0  0  0
    1.0774   -0.4140    0.0000 C   0  0  0  0  0  0  0  0  0  0  0  0
    2.3417   -0.0000    0.0000 C   0  0  0  0  0  0  0  0  0  0  0  0
    4.4520   -1.0774    0.0000 C   0  0  0  0  0  0  0  0  0  0  0  0
  1  2  1  0  0  0  0 
  1  3  1  0  0  0  0 
  2  4  1  0  0  0  0 
  2  5  2  0  0  0  0 
  6  3  2  0  0  0  0 
  3  7  1  0  0  0  0 
  5  6  1  0  0  0  0 
M  END
> <Name>
Furan, 2,5-dimethyl-

> <Source>
DSSTox2DMolFile

> <Tox>
2.520

> <CAS>
625-86-5

$$$$

  CDK

  8  8  0  0  0  0  0  0  0  0999 V2000
    3.4544    2.0025    0.0000 I   0  0  0  0  0  0  0  0  0  0  0  0
    2.6033    1.5019    0.0000 C   0  0  0  0  0  0  0  0  0  0  0  0
    1.7022    2.0526    0.0000 C   0  0  0  0  0  0  0  0  0  0  0  0
    2.6033    0.5507    0.0000 C   0  0  0  0  0  0  0  0  0  0  0  0
    0.9011    1.5019    0.0000 C   0  0  0  0  0  0  0  0  0  0  0  0
    1.7522    0.0000    0.0000 C   0  0  0  0  0  0  0  0  0  0  0  0
    0.0000    2.0025    0.0000 N   0  0  0  0  0  0  0  0  0  0  0  0
    0.9011    0.5006    0.0000 C   0  0  0  0  0  0  0  0  0  0  0  0
  1  2  1  0  0  0  0 
  3  2  2  0  0  0  0 
  2  4  1  0  0  0  0 
  5  3  1  0  0  0  0 
  4  6  2  0  0  0  0 
  5  7  1  0  0  0  0 
  8  5  2  0  0  0  0 
  6  8  1  0  0  0  0 
M  END
> <Name>
Benzenamine, 3-iodo-

> <Source>
NIST2DMolFile

> <Tox>
3.650

> <CAS>
626-01-7

$$$$

  CDK

  8  8  0  0  0  0  0  0  0  0999 V2000
    3.0976   -0.8962    0.0000 I   0  0  0  0  0  0  0  0  0  0  0  0
    1.1638   -0.1366   -0.0001 C   0  0  0  0  0  0  0  0  0  0  0  0
    0.0729   -1.0061    0.0001 C   0  0  0  0  0  0  0  0  0  0  0  0
    0.9561    1.2428   -0.0002 C   0  0  0  0  0  0  0  0  0  0  0  0
   -1.2254   -0.4961    0.0002 C   0  0  0  0  0  0  0  0  0  0  0  0
   -0.3422    1.7528    0.0000 C   0  0  0  0  0  0  0  0  0  0  0  0
   -2.2901   -1.3439   -0.0003 O   0  0  0  0  0  0  0  0  0  0  0  0
   -1.4328    0.8834    0.0001 C   0  0  0  0  0  0  0  0  0  0  0  0
  1  2  1  0  0  0  0 
  3  2  1  0  0  0  0 
  2  4  2  0  0  0  0 
  5  3  2  0  0  0  0 
  6  4  1  0  0  0  0 
  7  5  1  0  0  0  0 
  5  8  1  0  0  0  0 
  8  6  2  0  0  0  0 
M  END
> <Name>
3-iodophenol

> <Source>
Chemidplus3DMolFile

> <Tox>
4.120

> <CAS>
626-02-8

$$$$

  CDK

  7  6  0  0  0  0  0  0  0  0999 V2000
    2.1258   -0.4416   -0.3461 C   0  0  0  0  0  0  0  0  0  0  0  0
    0.8684    0.1112    0.3178 C   0  0  0  0  0  0  0  0  0  0  0  0
    3.2266    0.2759    0.1637 O   0  0  0  0  0  0  0  0  0  0  0  0
   -0.3688   -0.6278   -0.1670 C   0  0  0  0  0  0  0  0  0  0  0  0
   -1.6491    0.0374    0.3415 C   0  0  0  0  0  0  0  0  0  0  0  0
   -1.8011    1.4284   -0.2536 C   0  0  0  0  0  0  0  0  0  0  0  0
   -2.8590   -0.8189    0.0090 C   0  0  0  0  0  0  0  0  0  0  0  0
  1  2  1  0  0  0  0 
  1  3  1  0  0  0  0 
  2  4  1  0  0  0  0 
  4  5  1  0  0  0  0 
  5  6  1  0  0  0  0 
  5  7  1  0  0  0  0 
M  END
> <Name>
1-Pentanol, 4-methyl- (9CI)

> <Source>
DougDB3DMolFile

> <Tox>
2.363

> <CAS>
626-89-1

$$$$

  CDK

  7  6  0  0  0  0  0  0  0  0999 V2000
    2.7514    0.9018   -0.0924 C   0  0  0  0  0  0  0  0  0  0  0  0
    1.5708   -0.0386   -0.3362 C   0  0  0  0  0  0  0  0  0  0  0  0
    0.2847    0.5432    0.2668 C   0  0  0  0  0  0  0  0  0  0  0  0
    1.7818   -1.3025    0.2696 O   0  0  0  0  0  0  0  0  0  0  0  0
   -0.9602   -0.1540   -0.2571 C   0  0  0  0  0  0  0  0  0  0  0  0
   -2.2221    0.4559    0.3331 C   0  0  0  0  0  0  0  0  0  0  0  0
   -3.4639   -0.2324   -0.1869 C   0  0  0  0  0  0  0  0  0  0  0  0
  1  2  1  0  0  0  0 
  2  3  1  0  0  0  0 
  2  4  1  0  0  0  0 
  3  5  1  0  0  0  0 
  5  6  1  0  0  0  0 
  6  7  1  0  0  0  0 
M  END
> <Name>
hexan-2-ol

> <Source>
DougDB3DMolFile

> <Tox>
2.070

> <CAS>
626-93-7

$$$$

  CDK

  7  6  0  0  0  0  0  0  0  0999 V2000
    1.7073    1.5065    0.0000 C   0  0  0  0  0  0  0  0  0  0  0  0
    0.8537    1.0043    0.0000 C   0  0  0  0  0  0  0  0  0  0  0  0
    2.6112    1.0043    0.0000 C   0  0  0  0  0  0  0  0  0  0  0  0
    0.8537    0.0000    0.0000 O   0  0  0  0  0  0  0  0  0  0  0  0
    0.0000    1.5065    0.0000 O   0  0  0  0  0  0  0  0  0  0  0  0
    3.4649    1.5065    0.0000 C   0  0  0  0  0  0  0  0  0  0  0  0
    4.3186    1.0043    0.0000 Cl  0  0  0  0  0  0  0  0  0  0  0  0
  1  2  1  0  0  0  0 
  1  3  1  0  0  0  0 
  2  4  1  0  0  0  0 
  2  5  2  0  0  0  0 
  3  6  1  0  0  0  0 
  6  7  1  0  0  0  0 
M  END
> <Name>
Butyric acid, 4-chloro- (8CI)

> <Source>
NIST2DMolFile

> <Tox>
2.323

> <CAS>
627-00-9

$$$$

  CDK

  7  6  0  0  0  0  0  0  0  0999 V2000
    0.0000   -1.9878    0.0000 O   0  0  0  0  0  0  0  0  0  0  0  0
    1.1466   -1.3194    0.0000 N   0  0  0  0  0  0  0  0  0  0  0  0
    1.1466   -0.0000    0.0000 O   0  0  0  0  0  0  0  0  0  0  0  0
    2.3046   -1.9878    0.0000 C   0  0  0  0  0  0  0  0  0  0  0  0
    3.4570   -1.3194    0.0000 C   0  0  0  0  0  0  0  0  0  0  0  0
    4.6150   -1.9878    0.0000 C   0  0  0  0  0  0  0  0  0  0  0  0
    5.7616   -1.3194    0.0000 C   0  0  0  0  0  0  0  0  0  0  0  0
  1  2  1  0  0  0  0 
  2  3  2  0  0  0  0 
  2  4  1  0  0  0  0 
  4  5  1  0  0  0  0 
  5  6  1  0  0  0  0 
  6  7  1  0  0  0  0 
M  CHG  1   1  -1
M  CHG  1   2   1
M  END
> <Name>
Butane, 1-nitro-

> <Source>
DSSTox2DMolFile

> <Tox>
2.310

> <CAS>
627-05-4

$$$$

  CDK

  5  4  0  0  0  0  0  0  0  0999 V2000
    0.0000   -0.6638    0.0000 O   0  0  0  0  0  0  0  0  0  0  0  0
    1.1525   -0.0000    0.0000 C   0  0  0  0  0  0  0  0  0  0  0  0
    2.3050   -0.6638    0.0000 C   0  0  0  0  0  0  0  0  0  0  0  0
    3.4575   -0.0000    0.0000 C   0  0  0  0  0  0  0  0  0  0  0  0
    4.6099   -0.6638    0.0000 Br  0  0  0  0  0  0  0  0  0  0  0  0
  1  2  1  0  0  0  0 
  2  3  1  0  0  0  0 
  3  4  1  0  0  0  0 
  4  5  1  0  0  0  0 
M  END
> <Name>
1-Propanol, 3-bromo-

> <Source>
DSSTox2DMolFile

> <Tox>
2.067

> <CAS>
627-18-9

$$$$

  CDK

  5  4  0  0  0  0  0  0  0  0999 V2000
    0.8872    0.0000    0.0000 C   0  0  0  0  0  0  0  0  0  0  0  0
    1.7251    0.5422    0.0000 C   0  0  0  0  0  0  0  0  0  0  0  0
    0.0000    0.4929    0.0000 C   0  0  0  0  0  0  0  0  0  0  0  0
    2.5630    0.0493    0.0000 C   0  0  0  0  0  0  0  0  0  0  0  0
    3.4502    0.5422    0.0000 O   0  0  0  0  0  0  0  0  0  0  0  0
  1  2  1  0  0  0  0 
  1  3  2  0  0  0  0 
  2  4  1  0  0  0  0 
  4  5  1  0  0  0  0 
M  END
> <Name>
3-Buten-1-ol

> <Source>
NIST2DMolFile

> <Tox>
1.305

> <CAS>
627-27-0

$$$$

  CDK

  5  4  0  0  0  0  0  0  0  0999 V2000
    2.3050   -0.6638    0.0000 C   0  0  0  0  0  0  0  0  0  0  0  0
    1.1525   -0.0000    0.0000 C   0  0  0  0  0  0  0  0  0  0  0  0
    3.4575   -0.0000    0.0000 C   0  0  0  0  0  0  0  0  0  0  0  0
    0.0000   -0.6638    0.0000 Cl  0  0  0  0  0  0  0  0  0  0  0  0
    4.6099   -0.6638    0.0000 O   0  0  0  0  0  0  0  0  0  0  0  0
  1  2  1  0  0  0  0 
  1  3  1  0  0  0  0 
  2  4  1  0  0  0  0 
  3  5  1  0  0  0  0 
M  END
> <Name>
1-Propanol, 3-chloro-

> <Source>
DSSTox2DMolFile

> <Tox>
1.601

> <CAS>
627-30-5

$$$$

  CDK

  5  4  0  0  0  0  0  0  0  0999 V2000
    0.0000    0.0504    0.0000 C   0  0  0  0  0  0  0  0  0  0  0  0
    0.8561    0.5539    0.0000 C   0  0  0  0  0  0  0  0  0  0  0  0
    1.7625    0.0504    0.0000 C   0  0  0  0  0  0  0  0  0  0  0  0
    2.5683    0.5539    0.0000 N   0  0  0  0  0  0  0  0  0  0  0  0
    3.4244    0.0000    0.0000 C   0  0  0  0  0  0  0  0  0  0  0  0
  1  2  1  0  0  0  0 
  2  3  1  0  0  0  0 
  3  4  1  0  0  0  0 
  4  5  1  0  0  0  0 
M  END
> <Name>
N-Methyl-N-propylamine

> <Source>
NIST2DMolFile

> <Tox>
2.191

> <CAS>
627-35-0

$$$$

  CDK

  8  7  0  0  0  0  0  0  0  0999 V2000
    3.9913   -0.0000    0.0000 N   0  0  0  0  0  0  0  0  0  0  0  0
    4.6555   -1.1549    0.0000 C   0  0  0  0  0  0  0  0  0  0  0  0
    5.9839   -1.1549    0.0000 O   0  0  0  0  0  0  0  0  0  0  0  0
    3.9913   -2.3038    0.0000 C   0  0  0  0  0  0  0  0  0  0  0  0
    2.6569   -2.3038    0.0000 C   0  0  0  0  0  0  0  0  0  0  0  0
    1.9926   -1.1549    0.0000 C   0  0  0  0  0  0  0  0  0  0  0  0
    0.6642   -1.1549    0.0000 C   0  0  0  0  0  0  0  0  0  0  0  0
    0.0000   -0.0000    0.0000 C   0  0  0  0  0  0  0  0  0  0  0  0
  1  2  1  0  0  0  0 
  2  3  2  0  0  0  0 
  2  4  1  0  0  0  0 
  4  5  1  0  0  0  0 
  5  6  1  0  0  0  0 
  6  7  1  0  0  0  0 
  7  8  1  0  0  0  0 
M  END
> <Name>
Hexanamide

> <Source>
DSSTox2DMolFile

> <Tox>
2.092

> <CAS>
628-02-4

$$$$

  CDK

  8  7  0  0  0  0  0  0  0  0999 V2000
    0.0000    0.0000    0.0000 C   0  0  0  0  0  0  0  0  0  0  0  0
    0.9117    0.5065    0.0000 C   0  0  0  0  0  0  0  0  0  0  0  0
    1.7727    0.0000    0.0000 C   0  0  0  0  0  0  0  0  0  0  0  0
    2.6337    0.5065    0.0000 C   0  0  0  0  0  0  0  0  0  0  0  0
    3.4948    0.0000    0.0000 O   0  0  0  0  0  0  0  0  0  0  0  0
    4.3558    0.5065    0.0000 C   0  0  0  0  0  0  0  0  0  0  0  0
    5.2168    0.0000    0.0000 C   0  0  0  0  0  0  0  0  0  0  0  0
    4.3558    1.4688    0.0000 O   0  0  0  0  0  0  0  0  0  0  0  0
  1  2  1  0  0  0  0 
  2  3  2  0  0  0  0 
  3  4  1  0  0  0  0 
  4  5  1  0  0  0  0 
  5  6  1  0  0  0  0 
  6  7  1  0  0  0  0 
  6  8  2  0  0  0  0 
M  END
> <Name>
Acetic acid trans-2-butenyl ester

> <Source>
NIST2DMolFile

> <Tox>
2.130

> <CAS>
628-08-0

$$$$

  CDK

  6  5  0  0  0  0  0  0  0  0999 V2000
    0.0000    0.4594    0.0000 Cl  0  0  0  0  0  0  0  0  0  0  0  0
    0.8677    0.9188    0.0000 C   0  0  0  0  0  0  0  0  0  0  0  0
    1.7355    0.4594    0.0000 C   0  0  0  0  0  0  0  0  0  0  0  0
    2.6543    0.9188    0.0000 C   0  0  0  0  0  0  0  0  0  0  0  0
    3.5220    0.4594    0.0000 C   0  0  0  0  0  0  0  0  0  0  0  0
    4.4408    0.0000    0.0000 N   0  0  0  0  0  0  0  0  0  0  0  0
  1  2  1  0  0  0  0 
  2  3  1  0  0  0  0 
  3  4  1  0  0  0  0 
  4  5  1  0  0  0  0 
  5  6  3  0  0  0  0 
M  END
> <Name>
Butanenitrile, 4-chloro-

> <Source>
NIST2DMolFile

> <Tox>
2.070

> <CAS>
628-20-6

$$$$

  CDK

  6  5  0  0  0  0  0  0  0  0999 V2000
    2.6003    1.0001    0.0000 N   0  0  0  0  0  0  0  0  0  0  0  0
    1.7002    0.4501    0.0000 C   0  0  0  0  0  0  0  0  0  0  0  0
    3.4504    0.5001    0.0000 C   0  0  0  0  0  0  0  0  0  0  0  0
    0.8501    0.9501    0.0000 C   0  0  0  0  0  0  0  0  0  0  0  0
    4.3005    0.0000    0.0000 S   0  0  0  0  0  0  0  0  0  0  0  0
    0.0000    0.4501    0.0000 C   0  0  0  0  0  0  0  0  0  0  0  0
  1  2  1  0  0  0  0 
  1  3  2  0  0  0  0 
  2  4  1  0  0  0  0 
  3  5  2  0  0  0  0 
  4  6  1  0  0  0  0 
M  END
> <Name>
Propane, 1-isothiocyanato-

> <Source>
NIST2DMolFile

> <Tox>
4.693

> <CAS>
628-30-8

$$$$

  CDK

  9  8  0  0  0  0  0  0  0  0999 V2000
    1.1483   -0.6745    0.0000 C   0  0  0  0  0  0  0  0  0  0  0  0
    1.1483   -1.9994    0.0000 O   0  0  0  0  0  0  0  0  0  0  0  0
    2.2965   -0.0000    0.0000 O   0  0  0  0  0  0  0  0  0  0  0  0
    0.0000   -0.0000    0.0000 C   0  0  0  0  0  0  0  0  0  0  0  0
    3.4448   -0.6745    0.0000 C   0  0  0  0  0  0  0  0  0  0  0  0
    4.5850   -0.0000    0.0000 C   0  0  0  0  0  0  0  0  0  0  0  0
    5.7333   -0.6745    0.0000 C   0  0  0  0  0  0  0  0  0  0  0  0
    6.8815   -0.0000    0.0000 C   0  0  0  0  0  0  0  0  0  0  0  0
    8.0298   -0.6745    0.0000 C   0  0  0  0  0  0  0  0  0  0  0  0
  1  2  2  0  0  0  0 
  1  3  1  0  0  0  0 
  1  4  1  0  0  0  0 
  3  5  1  0  0  0  0 
  5  6  1  0  0  0  0 
  6  7  1  0  0  0  0 
  7  8  1  0  0  0  0 
  8  9  1  0  0  0  0 
M  END
> <Name>
Acetic acid, pentyl ester

> <Source>
DSSTox2DMolFile

> <Tox>
3.163

> <CAS>
628-63-7

$$$$

  CDK

  7  6  0  0  0  0  0  0  0  0999 V2000
    0.0000    0.0000    0.0000 C   0  0  0  0  0  0  0  0  0  0  0  0
    0.8556    0.5033    0.0000 C   0  0  0  0  0  0  0  0  0  0  0  0
    1.7111    0.0000    0.0000 C   0  0  0  0  0  0  0  0  0  0  0  0
    2.5667    0.5033    0.0000 C   0  0  0  0  0  0  0  0  0  0  0  0
    3.4726    0.0000    0.0000 C   0  0  0  0  0  0  0  0  0  0  0  0
    4.2778    0.5033    0.0000 C   0  0  0  0  0  0  0  0  0  0  0  0
    5.1837    1.0065    0.0000 N   0  0  0  0  0  0  0  0  0  0  0  0
  1  2  1  0  0  0  0 
  2  3  1  0  0  0  0 
  3  4  1  0  0  0  0 
  4  5  1  0  0  0  0 
  5  6  1  0  0  0  0 
  6  7  3  0  0  0  0 
M  END
> <Name>
Hexanenitrile

> <Source>
NIST2DMolFile

> <Tox>
2.624

> <CAS>
628-73-9

$$$$

  CDK

 10  9  0  0  0  0  0  0  0  0999 V2000
    3.4592    1.5040    0.0000 C   0  0  0  0  0  0  0  0  0  0  0  0
    2.6069    1.0027    0.0000 C   0  0  0  0  0  0  0  0  0  0  0  0
    4.3115    1.0027    0.0000 C   0  0  0  0  0  0  0  0  0  0  0  0
    1.7045    1.5040    0.0000 C   0  0  0  0  0  0  0  0  0  0  0  0
    5.2139    1.5040    0.0000 C   0  0  0  0  0  0  0  0  0  0  0  0
    0.8523    1.0027    0.0000 C   0  0  0  0  0  0  0  0  0  0  0  0
    6.0661    1.0027    0.0000 C   0  0  0  0  0  0  0  0  0  0  0  0
    0.8523    0.0000    0.0000 C   0  0  0  0  0  0  0  0  0  0  0  0
    0.0000    1.5040    0.0000 O   0  0  0  0  0  0  0  0  0  0  0  0
    6.9184    1.5040    0.0000 C   0  0  0  0  0  0  0  0  0  0  0  0
  1  2  1  0  0  0  0 
  1  3  1  0  0  0  0 
  2  4  1  0  0  0  0 
  3  5  1  0  0  0  0 
  4  6  1  0  0  0  0 
  5  7  1  0  0  0  0 
  6  8  1  0  0  0  0 
  6  9  1  0  0  0  0 
  7 10  1  0  0  0  0 
M  END
> <Name>
2-Nonanol

> <Source>
NIST2DMolFile

> <Tox>
3.618

> <CAS>
628-99-9

$$$$

  CDK

  8  7  0  0  0  0  0  0  0  0999 V2000
    8.0744   -0.0000    0.0000 Br  0  0  0  0  0  0  0  0  0  0  0  0
    6.9197   -0.6621    0.0000 C   0  0  0  0  0  0  0  0  0  0  0  0
    5.7651   -0.0000    0.0000 C   0  0  0  0  0  0  0  0  0  0  0  0
    4.6105   -0.6621    0.0000 C   0  0  0  0  0  0  0  0  0  0  0  0
    3.4639   -0.0000    0.0000 C   0  0  0  0  0  0  0  0  0  0  0  0
    2.3093   -0.6621    0.0000 C   0  0  0  0  0  0  0  0  0  0  0  0
    1.1546   -0.0000    0.0000 C   0  0  0  0  0  0  0  0  0  0  0  0
    0.0000   -0.6621    0.0000 C   0  0  0  0  0  0  0  0  0  0  0  0
  1  2  1  0  0  0  0 
  2  3  1  0  0  0  0 
  3  4  1  0  0  0  0 
  4  5  1  0  0  0  0 
  5  6  1  0  0  0  0 
  6  7  1  0  0  0  0 
  7  8  1  0  0  0  0 
M  END
> <Name>
Heptane, 1-bromo-

> <Source>
DSSTox2DMolFile

> <Tox>
4.487

> <CAS>
629-04-9

$$$$

  CDK

  8  7  0  0  0  0  0  0  0  0999 V2000
    8.0709   -0.6699    0.0000 C   0  0  0  0  0  0  0  0  0  0  0  0
    6.9167   -1.3317    0.0000 C   0  0  0  0  0  0  0  0  0  0  0  0
    5.7626   -0.6699    0.0000 C   0  0  0  0  0  0  0  0  0  0  0  0
    4.6085   -1.3317    0.0000 C   0  0  0  0  0  0  0  0  0  0  0  0
    3.4624   -0.6699    0.0000 C   0  0  0  0  0  0  0  0  0  0  0  0
    2.3083   -1.3317    0.0000 C   0  0  0  0  0  0  0  0  0  0  0  0
    1.1541   -0.6699    0.0000 C   0  0  0  0  0  0  0  0  0  0  0  0
    0.0000   -0.0000    0.0000 N   0  0  0  0  0  0  0  0  0  0  0  0
  1  2  1  0  0  0  0 
  2  3  1  0  0  0  0 
  3  4  1  0  0  0  0 
  4  5  1  0  0  0  0 
  5  6  1  0  0  0  0 
  6  7  1  0  0  0  0 
  7  8  3  0  0  0  0 
M  END
> <Name>
Heptane-1-nitrile

> <Source>
DSSTox2DMolFile

> <Tox>
2.763

> <CAS>
629-08-3

$$$$

  CDK

  8  7  0  0  0  0  0  0  0  0999 V2000
    5.4034    3.1520    0.0000 S   0  0  0  0  0  0  0  0  0  0  0  0
    4.7029    2.4515    0.0000 C   0  0  0  0  0  0  0  0  0  0  0  0
    4.0025    1.7511    0.0000 N   0  0  0  0  0  0  0  0  0  0  0  0
    3.0019    1.7511    0.0000 C   0  0  0  0  0  0  0  0  0  0  0  0
    2.5016    0.8505    0.0000 C   0  0  0  0  0  0  0  0  0  0  0  0
    1.5009    0.8505    0.0000 C   0  0  0  0  0  0  0  0  0  0  0  0
    1.0006    0.0000    0.0000 C   0  0  0  0  0  0  0  0  0  0  0  0
    0.0000    0.0000    0.0000 C   0  0  0  0  0  0  0  0  0  0  0  0
  1  2  2  0  0  0  0 
  2  3  2  0  0  0  0 
  3  4  1  0  0  0  0 
  4  5  1  0  0  0  0 
  5  6  1  0  0  0  0 
  6  7  1  0  0  0  0 
  7  8  1  0  0  0  0 
M  END
> <Name>
Pentyl isothiocyanate

> <Source>
NIST2DMolFile

> <Tox>
4.706

> <CAS>
629-12-9

$$$$

  CDK

  9  8  0  0  0  0  0  0  0  0999 V2000
    4.3129    0.5015    0.0000 C   0  0  0  0  0  0  0  0  0  0  0  0
    3.4604    0.0000    0.0000 C   0  0  0  0  0  0  0  0  0  0  0  0
    5.2156    0.0000    0.0000 C   0  0  0  0  0  0  0  0  0  0  0  0
    2.6078    0.5015    0.0000 C   0  0  0  0  0  0  0  0  0  0  0  0
    6.0682    0.5015    0.0000 C   0  0  0  0  0  0  0  0  0  0  0  0
    1.7051    0.0000    0.0000 O   0  0  0  0  0  0  0  0  0  0  0  0
    6.9207    0.0000    0.0000 C   0  0  0  0  0  0  0  0  0  0  0  0
    0.8526    0.5015    0.0000 C   0  0  0  0  0  0  0  0  0  0  0  0
    0.0000    0.0000    0.0000 O   0  0  0  0  0  0  0  0  0  0  0  0
  1  2  1  0  0  0  0 
  1  3  1  0  0  0  0 
  2  4  1  0  0  0  0 
  3  5  1  0  0  0  0 
  4  6  1  0  0  0  0 
  5  7  1  0  0  0  0 
  6  8  1  0  0  0  0 
  8  9  2  0  0  0  0 
M  END
> <Name>
Formic acid, hexyl ester

> <Source>
NIST2DMolFile

> <Tox>
2.618

> <CAS>
629-33-4

$$$$

  CDK

 10  9  0  0  0  0  0  0  0  0999 V2000
   10.3724   -0.0000    0.0000 N   0  0  0  0  0  0  0  0  0  0  0  0
    9.2210   -0.6638    0.0000 C   0  0  0  0  0  0  0  0  0  0  0  0
    8.0697   -1.3277    0.0000 C   0  0  0  0  0  0  0  0  0  0  0  0
    6.9184   -0.6638    0.0000 C   0  0  0  0  0  0  0  0  0  0  0  0
    5.7670   -1.3277    0.0000 C   0  0  0  0  0  0  0  0  0  0  0  0
    4.6053   -0.6638    0.0000 C   0  0  0  0  0  0  0  0  0  0  0  0
    3.4540   -1.3277    0.0000 C   0  0  0  0  0  0  0  0  0  0  0  0
    2.3027   -0.6638    0.0000 C   0  0  0  0  0  0  0  0  0  0  0  0
    1.1513   -1.3277    0.0000 C   0  0  0  0  0  0  0  0  0  0  0  0
    0.0000   -1.9915    0.0000 N   0  0  0  0  0  0  0  0  0  0  0  0
  1  2  3  0  0  0  0 
  2  3  1  0  0  0  0 
  3  4  1  0  0  0  0 
  4  5  1  0  0  0  0 
  5  6  1  0  0  0  0 
  6  7  1  0  0  0  0 
  7  8  1  0  0  0  0 
  8  9  1  0  0  0  0 
  9 10  3  0  0  0  0 
M  END
> <Name>
Octanedinitrile

> <Source>
DSSTox2DMolFile

> <Tox>
2.230

> <CAS>
629-40-3

$$$$

  CDK

  6  5  0  0  0  0  0  0  0  0999 V2000
    0.8337    2.6197    2.9434 C   0  0  0  0  0  0  0  0  0  0  0  0
    0.0000    3.0908    3.5954 N   0  0  0  0  0  0  0  0  0  0  0  0
    1.8876    2.0242    2.1190 C   0  0  0  0  0  0  0  0  0  0  0  0
    1.5078    2.1777    0.6452 C   0  0  0  0  0  0  0  0  0  0  0  0
    3.2043    2.7498    2.4011 C   0  0  0  0  0  0  0  0  0  0  0  0
    2.0166    0.5427    2.4775 C   0  0  0  0  0  0  0  0  0  0  0  0
  1  2  3  0  0  0  0 
  1  3  1  0  0  0  0 
  3  4  1  0  0  0  0 
  3  5  1  0  0  0  0 
  3  6  1  0  0  0  0 
M  END
> <Name>
Propanenitrile, 2,2-dimethyl-

> <Source>
NIST3DMolFile

> <Tox>
1.675

> <CAS>
630-18-2

$$$$

  CDK

 13 12  0  0  0  0  0  0  0  0999 V2000
   -0.6349   -2.4383   -1.4841 Br  0  0  0  0  0  0  0  0  0  0  0  0
    0.0003   -1.3434    0.0001 C   0  0  0  0  0  0  0  0  0  0  0  0
    0.6367   -2.4374    1.4844 Br  0  0  0  0  0  0  0  0  0  0  0  0
   -1.2143   -0.5687    0.4587 C   0  0  0  0  0  0  0  0  0  0  0  0
    1.2143   -0.5681   -0.4589 C   0  0  0  0  0  0  0  0  0  0  0  0
   -1.3253    0.5971   -0.2498 O   0  0  0  0  0  0  0  0  0  0  0  0
   -2.0194   -0.9530    1.2989 O   0  0  0  0  0  0  0  0  0  0  0  0
    1.3249    0.5977    0.2494 O   0  0  0  0  0  0  0  0  0  0  0  0
    2.0197   -0.9522   -1.2988 O   0  0  0  0  0  0  0  0  0  0  0  0
   -2.4776    1.3942    0.0416 C   0  0  0  0  0  0  0  0  0  0  0  0
    2.4770    1.3954   -0.0416 C   0  0  0  0  0  0  0  0  0  0  0  0
   -2.4479    2.6378   -0.8209 C   0  0  0  0  0  0  0  0  0  0  0  0
    2.4465    2.6390    0.8209 C   0  0  0  0  0  0  0  0  0  0  0  0
  1  2  1  0  0  0  0 
  3  2  1  0  0  0  0 
  2  4  1  0  0  0  0 
  2  5  1  0  0  0  0 
  6  4  1  0  0  0  0 
  7  4  2  0  0  0  0 
  8  5  1  0  0  0  0 
  9  5  2  0  0  0  0 
  6 10  1  0  0  0  0 
  8 11  1  0  0  0  0 
 10 12  1  0  0  0  0 
 11 13  1  0  0  0  0 
M  END
> <Name>
diethyl 2,2-dibromopropanedioate

> <Source>
Chemidplus3DMolFile

> <Tox>
5.137

> <CAS>
631-22-1

$$$$

  CDK

 10 10  0  0  0  0  0  0  0  0999 V2000
    0.0000   -2.3081    0.0000 N   0  0  0  0  0  0  0  0  0  0  0  0
    1.3296   -2.3081    0.0000 C   0  0  0  0  0  0  0  0  0  0  0  0
    1.9943   -1.1541    0.0000 C   0  0  0  0  0  0  0  0  0  0  0  0
    1.9943   -3.4568    0.0000 C   0  0  0  0  0  0  0  0  0  0  0  0
    1.3296   -0.0000    0.0000 Cl  0  0  0  0  0  0  0  0  0  0  0  0
    3.3239   -1.1541    0.0000 C   0  0  0  0  0  0  0  0  0  0  0  0
    3.3239   -3.4568    0.0000 C   0  0  0  0  0  0  0  0  0  0  0  0
    3.9887   -0.0000    0.0000 Cl  0  0  0  0  0  0  0  0  0  0  0  0
    3.9887   -2.3081    0.0000 C   0  0  0  0  0  0  0  0  0  0  0  0
    5.3182   -2.3081    0.0000 Cl  0  0  0  0  0  0  0  0  0  0  0  0
  1  2  1  0  0  0  0 
  2  3  2  0  0  0  0 
  2  4  1  0  0  0  0 
  3  5  1  0  0  0  0 
  3  6  1  0  0  0  0 
  7  4  2  0  0  0  0 
  6  8  1  0  0  0  0 
  6  9  2  0  0  0  0 
  9  7  1  0  0  0  0 
  9 10  1  0  0  0  0 
M  END
> <Name>
Benzenamine, 2,3,4-trichloro- (9CI)

> <Source>
DSSTox2DMolFile

> <Tox>
4.350

> <CAS>
634-67-3

$$$$

  CDK

 10 10  0  0  0  0  0  0  0  0999 V2000
    2.3039   -1.9986    0.0000 C   0  0  0  0  0  0  0  0  0  0  0  0
    1.1519   -2.6610    0.0000 C   0  0  0  0  0  0  0  0  0  0  0  0
    2.3039   -0.6681    0.0000 C   0  0  0  0  0  0  0  0  0  0  0  0
    3.4558   -2.6610    0.0000 C   0  0  0  0  0  0  0  0  0  0  0  0
    0.0000   -1.9986    0.0000 O   0  0  0  0  0  0  0  0  0  0  0  0
    1.1519   -0.0000    0.0000 O   0  0  0  0  0  0  0  0  0  0  0  0
    3.4558   -0.0000    0.0000 C   0  0  0  0  0  0  0  0  0  0  0  0
    4.6078   -1.9986    0.0000 C   0  0  0  0  0  0  0  0  0  0  0  0
    4.6078   -0.6681    0.0000 C   0  0  0  0  0  0  0  0  0  0  0  0
    5.7597   -2.6610    0.0000 Cl  0  0  0  0  0  0  0  0  0  0  0  0
  1  2  1  0  0  0  0 
  1  3  2  0  0  0  0 
  1  4  1  0  0  0  0 
  2  5  2  0  0  0  0 
  3  6  1  0  0  0  0 
  3  7  1  0  0  0  0 
  8  4  2  0  0  0  0 
  7  9  2  0  0  0  0 
  9  8  1  0  0  0  0 
  8 10  1  0  0  0  0 
M  END
> <Name>
Benzaldehyde, 5-chloro-2-hydroxy-

> <Source>
DSSTox2DMolFile

> <Tox>
4.009

> <CAS>
635-93-8

$$$$

  CDK

 10 10  0  0  0  0  0  0  0  0999 V2000
    0.0000    1.9696    0.0000 C   0  0  0  0  0  0  0  0  0  0  0  0
    0.8811    1.4513    0.0000 C   0  0  0  0  0  0  0  0  0  0  0  0
    0.8811    0.5183    0.0000 S   0  0  0  0  0  0  0  0  0  0  0  0
    1.8141    1.9696    0.0000 N   0  0  0  0  0  0  0  0  0  0  0  0
    2.6953    1.4513    0.0000 C   0  0  0  0  0  0  0  0  0  0  0  0
    3.5764    1.9696    0.0000 C   0  0  0  0  0  0  0  0  0  0  0  0
    2.6953    0.5183    0.0000 C   0  0  0  0  0  0  0  0  0  0  0  0
    4.4576    1.4513    0.0000 C   0  0  0  0  0  0  0  0  0  0  0  0
    3.5764    0.0000    0.0000 C   0  0  0  0  0  0  0  0  0  0  0  0
    4.4576    0.5183    0.0000 C   0  0  0  0  0  0  0  0  0  0  0  0
  1  2  1  0  0  0  0 
  2  3  2  0  0  0  0 
  2  4  1  0  0  0  0 
  4  5  1  0  0  0  0 
  5  6  2  0  0  0  0 
  7  5  1  0  0  0  0 
  6  8  1  0  0  0  0 
  9  7  2  0  0  0  0 
  8 10  2  0  0  0  0 
 10  9  1  0  0  0  0 
M  END
> <Name>
Ethanethioamide, N-phenyl-

> <Source>
NIST2DMolFile

> <Tox>
2.990

> <CAS>
637-53-6

$$$$

  CDK

 10 10  0  0  0  0  0  0  0  0999 V2000
    0.0000    1.5062    0.0000 C   0  0  0  0  0  0  0  0  0  0  0  0
    0.8535    2.0083    0.0000 C   0  0  0  0  0  0  0  0  0  0  0  0
    0.0000    0.5021    0.0000 C   0  0  0  0  0  0  0  0  0  0  0  0
    1.7070    1.5062    0.0000 C   0  0  0  0  0  0  0  0  0  0  0  0
    0.8535    0.0000    0.0000 C   0  0  0  0  0  0  0  0  0  0  0  0
    1.7070    0.5021    0.0000 C   0  0  0  0  0  0  0  0  0  0  0  0
    2.5605    2.0585    0.0000 C   0  0  0  0  0  0  0  0  0  0  0  0
    3.4642    1.5564    0.0000 C   0  0  0  0  0  0  0  0  0  0  0  0
    4.3177    2.0585    0.0000 C   0  0  0  0  0  0  0  0  0  0  0  0
    5.1712    1.5564    0.0000 Br  0  0  0  0  0  0  0  0  0  0  0  0
  1  2  2  0  0  0  0 
  3  1  1  0  0  0  0 
  2  4  1  0  0  0  0 
  5  3  2  0  0  0  0 
  4  6  2  0  0  0  0 
  4  7  1  0  0  0  0 
  6  5  1  0  0  0  0 
  7  8  1  0  0  0  0 
  8  9  1  0  0  0  0 
  9 10  1  0  0  0  0 
M  END
> <Name>
3-bromopropylbenzene

> <Source>
NIST2DMolFile

> <Tox>
3.690

> <CAS>
637-59-2

$$$$

  CDK

  8  8  0  0  0  0  0  0  0  0999 V2000
    0.0000    0.8559    0.0000 O   0  0  0  0  0  0  0  0  0  0  0  0
    1.0070    0.8559    0.0000 C   0  0  0  0  0  0  0  0  0  0  0  0
    1.5105    1.7119    0.0000 C   0  0  0  0  0  0  0  0  0  0  0  0
    1.5105    0.0000    0.0000 C   0  0  0  0  0  0  0  0  0  0  0  0
    2.5174    1.7119    0.0000 C   0  0  0  0  0  0  0  0  0  0  0  0
    2.5174    0.0000    0.0000 C   0  0  0  0  0  0  0  0  0  0  0  0
    3.0209    0.8559    0.0000 C   0  0  0  0  0  0  0  0  0  0  0  0
    4.0279    0.8559    0.0000 O   0  0  0  0  0  0  0  0  0  0  0  0
  1  2  2  0  0  0  0 
  3  2  1  0  0  0  0 
  2  4  1  0  0  0  0 
  5  3  1  0  0  0  0 
  4  6  1  0  0  0  0 
  7  5  1  0  0  0  0 
  6  7  1  0  0  0  0 
  7  8  2  0  0  0  0 
M  END
> <Name>
1,4-Cyclohexanedione

> <Source>
NIST2DMolFile

> <Tox>
1.332

> <CAS>
637-88-7

$$$$

  CDK

  9  8  0  0  0  0  0  0  0  0999 V2000
   -0.2848    0.2868   -0.0161 C   0  0  0  0  0  0  0  0  0  0  0  0
    0.8845   -0.6128   -0.0184 C   0  0  0  0  0  0  0  0  0  0  0  0
   -0.3468    1.5032   -0.0280 O   0  0  0  0  0  0  0  0  0  0  0  0
   -1.4552   -0.4222    0.0001 O   0  0  0  0  0  0  0  0  0  0  0  0
    2.1769   -0.2492    0.0031 C   0  0  0  0  0  0  0  0  0  0  0  0
   -2.6888    0.2966    0.0030 C   0  0  0  0  0  0  0  0  0  0  0  0
    3.2339   -1.3018   -0.0049 C   0  0  0  0  0  0  0  0  0  0  0  0
    2.7004    1.1387    0.0363 C   0  0  0  0  0  0  0  0  0  0  0  0
   -3.7927   -0.7436    0.0216 C   0  0  0  0  0  0  0  0  0  0  0  0
  1  2  1  0  0  0  0 
  1  3  2  0  0  0  0 
  1  4  1  0  0  0  0 
  2  5  2  0  0  0  0 
  4  6  1  0  0  0  0 
  5  7  1  0  0  0  0 
  5  8  1  0  0  0  0 
  6  9  1  0  0  0  0 
M  END
> <Name>
2-Butenoic acid, 3-methyl-, ethyl ester

> <Source>
DougDB3DMolFile

> <Tox>
2.520

> <CAS>
638-10-8

$$$$

  CDK

  7  6  0  0  0  0  0  0  0  0999 V2000
    5.7429   -1.9985    0.0000 Cl  0  0  0  0  0  0  0  0  0  0  0  0
    4.5885   -1.3266    0.0000 C   0  0  0  0  0  0  0  0  0  0  0  0
    3.4400   -1.9985    0.0000 C   0  0  0  0  0  0  0  0  0  0  0  0
    4.5885   -0.0000    0.0000 O   0  0  0  0  0  0  0  0  0  0  0  0
    2.2857   -1.3266    0.0000 C   0  0  0  0  0  0  0  0  0  0  0  0
    1.1543   -1.9985    0.0000 C   0  0  0  0  0  0  0  0  0  0  0  0
    0.0000   -1.3266    0.0000 C   0  0  0  0  0  0  0  0  0  0  0  0
  1  2  1  0  0  0  0 
  2  3  1  0  0  0  0 
  2  4  2  0  0  0  0 
  3  5  1  0  0  0  0 
  5  6  1  0  0  0  0 
  6  7  1  0  0  0  0 
M  END
> <Name>
Pentanoyl chloride

> <Source>
DSSTox2DMolFile

> <Tox>
2.655

> <CAS>
638-29-9

$$$$

  CDK

  8  7  0  0  0  0  0  0  0  0999 V2000
    3.4705    0.4958    0.0000 C   0  0  0  0  0  0  0  0  0  0  0  0
    2.5781    0.0000    0.0000 C   0  0  0  0  0  0  0  0  0  0  0  0
    4.3133    0.0000    0.0000 O   0  0  0  0  0  0  0  0  0  0  0  0
    1.7352    0.4958    0.0000 C   0  0  0  0  0  0  0  0  0  0  0  0
    5.1561    0.5454    0.0000 C   0  0  0  0  0  0  0  0  0  0  0  0
    0.8924    0.0000    0.0000 C   0  0  0  0  0  0  0  0  0  0  0  0
    6.0485    0.0496    0.0000 O   0  0  0  0  0  0  0  0  0  0  0  0
    0.0000    0.4958    0.0000 C   0  0  0  0  0  0  0  0  0  0  0  0
  1  2  1  0  0  0  0 
  1  3  1  0  0  0  0 
  2  4  1  0  0  0  0 
  3  5  1  0  0  0  0 
  4  6  1  0  0  0  0 
  5  7  2  0  0  0  0 
  6  8  1  0  0  0  0 
M  END
> <Name>
Formic acid, pentyl ester

> <Source>
NIST2DMolFile

> <Tox>
2.217

> <CAS>
638-49-3

$$$$

  CDK

 10 10  0  0  0  0  0  0  0  0999 V2000
   -0.3071    2.3381    0.1579 N   0  0  0  0  0  0  0  0  0  0  0  0
   -0.7067    0.9642    0.1206 C   0  0  0  0  0  0  0  0  0  0  0  0
    0.2369   -0.0786    0.0675 C   0  0  0  0  0  0  0  0  0  0  0  0
   -2.0772    0.6678    0.0446 C   0  0  0  0  0  0  0  0  0  0  0  0
   -0.2183   -1.3913   -0.0710 C   0  0  0  0  0  0  0  0  0  0  0  0
    1.7200    0.1768    0.1387 C   0  0  0  0  0  0  0  0  0  0  0  0
   -2.5025   -0.6443   -0.0963 C   0  0  0  0  0  0  0  0  0  0  0  0
   -1.5731   -1.6781   -0.1555 C   0  0  0  0  0  0  0  0  0  0  0  0
    2.3101    0.1671   -1.2652 C   0  0  0  0  0  0  0  0  0  0  0  0
    2.4162   -0.8530    1.0167 C   0  0  0  0  0  0  0  0  0  0  0  0
  1  2  1  0  0  0  0 
  2  3  1  0  0  0  0 
  2  4  2  0  0  0  0 
  3  5  2  0  0  0  0 
  3  6  1  0  0  0  0 
  7  4  1  0  0  0  0 
  5  8  1  0  0  0  0 
  6  9  1  0  0  0  0 
  6 10  1  0  0  0  0 
  8  7  2  0  0  0  0 
M  END
> <Name>
Benzenamine, 2-(1-methylethyl)-

> <Source>
DougDB3DMolFile

> <Tox>
3.120

> <CAS>
643-28-7

$$$$

  CDK

 13 14  0  0  0  0  0  0  0  0999 V2000
   -3.1038    0.0023    0.0032 C   0  0  0  0  0  0  0  0  0  0  0  0
   -4.5889   -0.0046   -0.0122 C   0  0  0  0  0  0  0  0  0  0  0  0
   -2.3997   -1.1002    0.4903 C   0  0  0  0  0  0  0  0  0  0  0  0
   -2.3989    1.1054   -0.4808 C   0  0  0  0  0  0  0  0  0  0  0  0
   -1.0109   -1.1033    0.4882 C   0  0  0  0  0  0  0  0  0  0  0  0
   -1.0099    1.1069   -0.4794 C   0  0  0  0  0  0  0  0  0  0  0  0
   -0.3057    0.0011    0.0034 C   0  0  0  0  0  0  0  0  0  0  0  0
    1.1630   -0.0001    0.0017 C   0  0  0  0  0  0  0  0  0  0  0  0
    1.8683    1.1053    0.4846 C   0  0  0  0  0  0  0  0  0  0  0  0
    1.8649   -1.1063   -0.4842 C   0  0  0  0  0  0  0  0  0  0  0  0
    3.2582    1.1005    0.4824 C   0  0  0  0  0  0  0  0  0  0  0  0
    3.2548   -1.1032   -0.4879 C   0  0  0  0  0  0  0  0  0  0  0  0
    3.9531   -0.0017   -0.0044 C   0  0  0  0  0  0  0  0  0  0  0  0
  1  2  1  0  0  0  0 
  3  1  1  0  0  0  0 
  4  1  2  0  0  0  0 
  5  3  2  0  0  0  0 
  6  4  1  0  0  0  0 
  7  5  1  0  0  0  0 
  6  7  2  0  0  0  0 
  8  7  1  0  0  0  0 
  9  8  1  0  0  0  0 
 10  8  2  0  0  0  0 
 11  9  2  0  0  0  0 
 12 10  1  0  0  0  0 
 13 11  1  0  0  0  0 
 12 13  2  0  0  0  0 
M  END
> <Name>
1,1'-Biphenyl, 4-methyl-

> <Source>
DougDB3DMolFile

> <Tox>
4.660

> <CAS>
644-08-6

$$$$

  CDK

 12 12  0  0  0  0  0  0  0  0999 V2000
    1.1537   -2.6597    0.0000 C   0  0  0  0  0  0  0  0  0  0  0  0
    0.0000   -1.9896    0.0000 N   0  0  0  0  0  0  0  0  0  0  0  0
    1.1537   -3.9861    0.0000 O   0  0  0  0  0  0  0  0  0  0  0  0
    2.3004   -1.9896    0.0000 C   0  0  0  0  0  0  0  0  0  0  0  0
    2.3004   -0.6632    0.0000 C   0  0  0  0  0  0  0  0  0  0  0  0
    3.4541   -2.6597    0.0000 C   0  0  0  0  0  0  0  0  0  0  0  0
    3.4541   -0.0000    0.0000 C   0  0  0  0  0  0  0  0  0  0  0  0
    4.6078   -1.9896    0.0000 C   0  0  0  0  0  0  0  0  0  0  0  0
    4.6078   -0.6632    0.0000 C   0  0  0  0  0  0  0  0  0  0  0  0
    5.7546   -2.6597    0.0000 N   0  0  0  0  0  0  0  0  0  0  0  0
    5.7546   -3.9861    0.0000 O   0  0  0  0  0  0  0  0  0  0  0  0
    6.9082   -1.9896    0.0000 O   0  0  0  0  0  0  0  0  0  0  0  0
  1  2  1  0  0  0  0 
  1  3  2  0  0  0  0 
  1  4  1  0  0  0  0 
  4  5  2  0  0  0  0 
  4  6  1  0  0  0  0 
  5  7  1  0  0  0  0 
  8  6  2  0  0  0  0 
  7  9  2  0  0  0  0 
  9  8  1  0  0  0  0 
  8 10  1  0  0  0  0 
 10 11  2  0  0  0  0 
 10 12  1  0  0  0  0 
M  CHG  1  10   1
M  CHG  1  12  -1
M  END
> <Name>
Benzamide, m-nitro- (8CI)

> <Source>
DSSTox2DMolFile

> <Tox>
2.810

> <CAS>
645-09-0

$$$$

  CDK

 10 10  0  0  0  0  0  0  0  0999 V2000
    7.3120   -1.1553    0.0000 O   0  0  0  0  0  0  0  0  0  0  0  0
    5.9812   -1.1553    0.0000 C   0  0  0  0  0  0  0  0  0  0  0  0
    5.3158   -2.3033    0.0000 C   0  0  0  0  0  0  0  0  0  0  0  0
    5.3158   -0.0000    0.0000 C   0  0  0  0  0  0  0  0  0  0  0  0
    3.9850   -2.3033    0.0000 C   0  0  0  0  0  0  0  0  0  0  0  0
    3.9850   -0.0000    0.0000 C   0  0  0  0  0  0  0  0  0  0  0  0
    3.3270   -1.1553    0.0000 C   0  0  0  0  0  0  0  0  0  0  0  0
    1.9962   -1.1553    0.0000 C   0  0  0  0  0  0  0  0  0  0  0  0
    1.3308   -0.0000    0.0000 C   0  0  0  0  0  0  0  0  0  0  0  0
    0.0000   -0.0000    0.0000 C   0  0  0  0  0  0  0  0  0  0  0  0
  1  2  1  0  0  0  0 
  2  3  2  0  0  0  0 
  2  4  1  0  0  0  0 
  3  5  1  0  0  0  0 
  6  4  2  0  0  0  0 
  5  7  2  0  0  0  0 
  7  6  1  0  0  0  0 
  7  8  1  0  0  0  0 
  8  9  1  0  0  0  0 
  9 10  1  0  0  0  0 
M  END
> <Name>
Phenol, 4-propyl-

> <Source>
DSSTox2DMolFile

> <Tox>
3.640

> <CAS>
645-56-7

$$$$

  CDK

 10 10  0  0  0  0  0  0  0  0999 V2000
    2.5098    0.9035    0.0000 C   0  0  0  0  0  0  0  0  0  0  0  0
    2.0078    0.0000    0.0000 C   0  0  0  0  0  0  0  0  0  0  0  0
    3.5137    0.9035    0.0000 C   0  0  0  0  0  0  0  0  0  0  0  0
    1.0039    0.0000    0.0000 C   0  0  0  0  0  0  0  0  0  0  0  0
    4.0157    1.7569    0.0000 C   0  0  0  0  0  0  0  0  0  0  0  0
    4.0157    0.0000    0.0000 C   0  0  0  0  0  0  0  0  0  0  0  0
    0.0000    0.0000    0.0000 N   0  0  0  0  0  0  0  0  0  0  0  0
    4.9694    1.7569    0.0000 C   0  0  0  0  0  0  0  0  0  0  0  0
    4.9694    0.0000    0.0000 C   0  0  0  0  0  0  0  0  0  0  0  0
    5.4713    0.9035    0.0000 C   0  0  0  0  0  0  0  0  0  0  0  0
  1  2  1  0  0  0  0 
  1  3  1  0  0  0  0 
  2  4  1  0  0  0  0 
  5  3  2  0  0  0  0 
  3  6  1  0  0  0  0 
  4  7  3  0  0  0  0 
  8  5  1  0  0  0  0 
  6  9  2  0  0  0  0 
 10  8  2  0  0  0  0 
  9 10  1  0  0  0  0 
M  END
> <Name>
3-Phenylpropiononitrile

> <Source>
NIST2DMolFile

> <Tox>
2.840

> <CAS>
645-59-0

$$$$

  CDK

 13 13  0  0  0  0  0  0  0  0999 V2000
    1.9926   -2.3038    0.0000 C   0  0  0  0  0  0  0  0  0  0  0  0
    0.6642   -2.3038    0.0000 C   0  0  0  0  0  0  0  0  0  0  0  0
    2.6568   -1.1549    0.0000 C   0  0  0  0  0  0  0  0  0  0  0  0
    2.6568   -3.4586    0.0000 C   0  0  0  0  0  0  0  0  0  0  0  0
    0.0000   -1.1549    0.0000 O   0  0  0  0  0  0  0  0  0  0  0  0
    1.9926   -0.0000    0.0000 F   0  0  0  0  0  0  0  0  0  0  0  0
    3.9912   -1.1549    0.0000 C   0  0  0  0  0  0  0  0  0  0  0  0
    3.9912   -3.4586    0.0000 C   0  0  0  0  0  0  0  0  0  0  0  0
    1.9926   -4.6075    0.0000 F   0  0  0  0  0  0  0  0  0  0  0  0
    4.6554   -0.0000    0.0000 F   0  0  0  0  0  0  0  0  0  0  0  0
    4.6554   -2.3038    0.0000 C   0  0  0  0  0  0  0  0  0  0  0  0
    4.6554   -4.6075    0.0000 F   0  0  0  0  0  0  0  0  0  0  0  0
    5.9838   -2.3038    0.0000 F   0  0  0  0  0  0  0  0  0  0  0  0
  1  2  1  0  0  0  0 
  1  3  2  0  0  0  0 
  1  4  1  0  0  0  0 
  2  5  2  0  0  0  0 
  3  6  1  0  0  0  0 
  3  7  1  0  0  0  0 
  8  4  2  0  0  0  0 
  4  9  1  0  0  0  0 
  7 10  1  0  0  0  0 
  7 11  2  0  0  0  0 
 11  8  1  0  0  0  0 
  8 12  1  0  0  0  0 
 11 13  1  0  0  0  0 
M  END
> <Name>
Benzaldehyde, pentafluoro- (8CI)(9CI)

> <Source>
DSSTox2DMolFile

> <Tox>
3.820

> <CAS>
653-37-2

$$$$

  CDK

  9  9  0  0  0  0  0  0  0  0999 V2000
    1.8399    2.1305    1.0676 C   0  0  0  0  0  0  0  0  0  0  0  0
    3.0335    2.1421    1.0972 C   0  0  0  0  0  0  0  0  0  0  0  0
    0.4091    2.1160    1.0354 C   0  0  0  0  0  0  0  0  0  0  0  0
    4.4488    2.1559    1.1322 C   0  0  0  0  0  0  0  0  0  0  0  0
    5.1586    0.9522    1.2018 C   0  0  0  0  0  0  0  0  0  0  0  0
    5.1377    3.3734    1.1000 C   0  0  0  0  0  0  0  0  0  0  0  0
    6.5473    0.9701    1.2372 C   0  0  0  0  0  0  0  0  0  0  0  0
    6.5269    3.3797    1.1369 C   0  0  0  0  0  0  0  0  0  0  0  0
    7.2312    2.1817    1.2056 C   0  0  0  0  0  0  0  0  0  0  0  0
  1  2  3  0  0  0  0 
  1  3  1  0  0  0  0 
  2  4  1  0  0  0  0 
  5  4  2  0  0  0  0 
  4  6  1  0  0  0  0 
  7  5  1  0  0  0  0 
  6  8  2  0  0  0  0 
  9  7  2  0  0  0  0 
  8  9  1  0  0  0  0 
M  END
> <Name>
prop-1-ynylbenzene

> <Source>
NIST3DMolFile

> <Tox>
3.190

> <CAS>
673-32-5

$$$$

  CDK

  5  4  0  0  0  0  0  0  0  0999 V2000
    0.0000    0.5592    0.0000 Br  0  0  0  0  0  0  0  0  0  0  0  0
    0.9150    0.0000    0.0000 C   0  0  0  0  0  0  0  0  0  0  0  0
    1.7284    0.5083    0.0000 C   0  0  0  0  0  0  0  0  0  0  0  0
    2.5926    0.0000    0.0000 N   0  0  0  0  0  0  0  0  0  0  0  0
    1.7284    1.4742    0.0000 O   0  0  0  0  0  0  0  0  0  0  0  0
  1  2  1  0  0  0  0 
  2  3  1  0  0  0  0 
  3  4  1  0  0  0  0 
  3  5  2  0  0  0  0 
M  END
> <Name>
Acetamide, 2-bromo-

> <Source>
NIST2DMolFile

> <Tox>
4.523

> <CAS>
683-57-8

$$$$

  CDK

  6  5  0  0  0  0  0  0  0  0999 V2000
    3.3250   -1.1509    0.0000 Cl  0  0  0  0  0  0  0  0  0  0  0  0
    1.9943   -1.1509    0.0000 C   0  0  0  0  0  0  0  0  0  0  0  0
    1.3307   -0.0000    0.0000 Cl  0  0  0  0  0  0  0  0  0  0  0  0
    1.3307   -2.3053    0.0000 C   0  0  0  0  0  0  0  0  0  0  0  0
    1.9943   -3.4563    0.0000 N   0  0  0  0  0  0  0  0  0  0  0  0
    0.0000   -2.3053    0.0000 O   0  0  0  0  0  0  0  0  0  0  0  0
  1  2  1  0  0  0  0 
  2  3  1  0  0  0  0 
  2  4  1  0  0  0  0 
  4  5  1  0  0  0  0 
  4  6  2  0  0  0  0 
M  END
> <Name>
Acetamide, 2,2-dichloro-

> <Source>
DSSTox2DMolFile

> <Tox>
2.023

> <CAS>
683-72-7

$$$$

  CDK

 12 11  0  0  0  0  0  0  0  0999 V2000
    0.0000   -0.6504    2.2466 Br  0  0  0  0  0  0  0  0  0  0  0  0
    0.0000   -0.3391    0.3255 C   0  0  0  0  0  0  0  0  0  0  0  0
   -1.2824    0.3964    0.0314 C   0  0  0  0  0  0  0  0  0  0  0  0
    1.2824    0.3963    0.0311 C   0  0  0  0  0  0  0  0  0  0  0  0
   -2.2881   -0.5060   -0.1802 O   0  0  0  0  0  0  0  0  0  0  0  0
   -1.4028    1.6139   -0.0037 O   0  0  0  0  0  0  0  0  0  0  0  0
    2.2879   -0.5062   -0.1802 O   0  0  0  0  0  0  0  0  0  0  0  0
    1.4030    1.6138   -0.0039 O   0  0  0  0  0  0  0  0  0  0  0  0
   -3.5733    0.0564   -0.4630 C   0  0  0  0  0  0  0  0  0  0  0  0
    3.5733    0.0564   -0.4630 C   0  0  0  0  0  0  0  0  0  0  0  0
   -4.5679   -1.0658   -0.6704 C   0  0  0  0  0  0  0  0  0  0  0  0
    4.5679   -1.0657   -0.6703 C   0  0  0  0  0  0  0  0  0  0  0  0
  1  2  1  0  0  0  0 
  2  3  1  0  0  0  0 
  2  4  1  0  0  0  0 
  5  3  1  0  0  0  0 
  6  3  2  0  0  0  0 
  7  4  1  0  0  0  0 
  8  4  2  0  0  0  0 
  5  9  1  0  0  0  0 
  7 10  1  0  0  0  0 
  9 11  1  0  0  0  0 
 10 12  1  0  0  0  0 
M  END
> <Name>
diethyl 2-bromopropanedioate

> <Source>
Chemidplus3DMolFile

> <Tox>
5.215

> <CAS>
685-87-0

$$$$

  CDK

  8  7  0  0  0  0  0  0  0  0999 V2000
    3.9901   -1.1531    0.0000 C   0  0  0  0  0  0  0  0  0  0  0  0
    2.6614   -1.1531    0.0000 C   0  0  0  0  0  0  0  0  0  0  0  0
    1.9951   -0.0000    0.0000 O   0  0  0  0  0  0  0  0  0  0  0  0
    1.9951   -2.3023    0.0000 N   0  0  0  0  0  0  0  0  0  0  0  0
    2.6614   -3.4554    0.0000 C   0  0  0  0  0  0  0  0  0  0  0  0
    0.6664   -2.3023    0.0000 C   0  0  0  0  0  0  0  0  0  0  0  0
    3.9901   -3.4554    0.0000 C   0  0  0  0  0  0  0  0  0  0  0  0
    0.0000   -3.4554    0.0000 C   0  0  0  0  0  0  0  0  0  0  0  0
  1  2  1  0  0  0  0 
  2  3  2  0  0  0  0 
  2  4  1  0  0  0  0 
  4  5  1  0  0  0  0 
  4  6  1  0  0  0  0 
  5  7  1  0  0  0  0 
  6  8  1  0  0  0  0 
M  END
> <Name>
Acetamide, N,N-diethyl-

> <Source>
DSSTox2DMolFile

> <Tox>
1.458

> <CAS>
685-91-6

$$$$

  CDK

 14 13  0  0  0  0  0  0  0  0999 V2000
    5.7601   -1.3311    0.0000 C   0  0  0  0  0  0  0  0  0  0  0  0
    6.9137   -1.9926    0.0000 C   0  0  0  0  0  0  0  0  0  0  0  0
    4.6064   -1.9926    0.0000 O   0  0  0  0  0  0  0  0  0  0  0  0
    5.7601   -0.0000    0.0000 O   0  0  0  0  0  0  0  0  0  0  0  0
    8.0673   -1.3311    0.0000 C   0  0  0  0  0  0  0  0  0  0  0  0
    6.9137   -3.3237    0.0000 C   0  0  0  0  0  0  0  0  0  0  0  0
    3.4609   -1.3311    0.0000 C   0  0  0  0  0  0  0  0  0  0  0  0
    2.3073   -1.9926    0.0000 C   0  0  0  0  0  0  0  0  0  0  0  0
    2.3073   -3.3237    0.0000 C   0  0  0  0  0  0  0  0  0  0  0  0
    1.1536   -1.3311    0.0000 C   0  0  0  0  0  0  0  0  0  0  0  0
    1.1536   -3.9933    0.0000 C   0  0  0  0  0  0  0  0  0  0  0  0
    0.0000   -1.9926    0.0000 C   0  0  0  0  0  0  0  0  0  0  0  0
    1.1536   -5.3244    0.0000 C   0  0  0  0  0  0  0  0  0  0  0  0
    0.0000   -5.9860    0.0000 C   0  0  0  0  0  0  0  0  0  0  0  0
  1  2  1  0  0  0  0 
  1  3  1  0  0  0  0 
  1  4  2  0  0  0  0 
  2  5  2  0  0  0  0 
  2  6  1  0  0  0  0 
  3  7  1  0  0  0  0 
  7  8  1  0  0  0  0 
  8  9  1  0  0  0  0 
  8 10  1  0  0  0  0 
  9 11  1  0  0  0  0 
 10 12  1  0  0  0  0 
 11 13  1  0  0  0  0 
 13 14  1  0  0  0  0 
M  END
> <Name>
2-ethylhexyl 2-methylprop-2-enoate

> <Source>
DSSTox2DMolFile

> <Tox>
4.570

> <CAS>
688-84-6

$$$$

  CDK

 16 15  0  0  0  0  0  0  0  0999 V2000
    1.1413   -1.2896    0.0000 C   0  0  0  0  0  0  0  0  0  0  0  0
    2.2679   -1.9862    0.0000 C   0  0  0  0  0  0  0  0  0  0  0  0
    0.0000   -1.9862    0.0000 O   0  0  0  0  0  0  0  0  0  0  0  0
    1.1413   -0.0000    0.0000 O   0  0  0  0  0  0  0  0  0  0  0  0
    3.3944   -1.2896    0.0000 C   0  0  0  0  0  0  0  0  0  0  0  0
    4.5358   -1.9862    0.0000 C   0  0  0  0  0  0  0  0  0  0  0  0
    5.7216   -1.2896    0.0000 C   0  0  0  0  0  0  0  0  0  0  0  0
    6.8629   -1.9862    0.0000 C   0  0  0  0  0  0  0  0  0  0  0  0
    8.0043   -1.2896    0.0000 C   0  0  0  0  0  0  0  0  0  0  0  0
    9.1456   -1.9862    0.0000 C   0  0  0  0  0  0  0  0  0  0  0  0
   10.2870   -1.2896    0.0000 C   0  0  0  0  0  0  0  0  0  0  0  0
   11.4283   -1.9862    0.0000 C   0  0  0  0  0  0  0  0  0  0  0  0
   12.5548   -1.2896    0.0000 C   0  0  0  0  0  0  0  0  0  0  0  0
   13.6814   -1.9862    0.0000 C   0  0  0  0  0  0  0  0  0  0  0  0
   14.8227   -1.2896    0.0000 O   0  0  0  0  0  0  0  0  0  0  0  0
   13.6814   -3.2758    0.0000 O   0  0  0  0  0  0  0  0  0  0  0  0
  1  2  1  0  0  0  0 
  1  3  1  0  0  0  0 
  1  4  2  0  0  0  0 
  2  5  1  0  0  0  0 
  5  6  1  0  0  0  0 
  6  7  1  0  0  0  0 
  7  8  1  0  0  0  0 
  8  9  1  0  0  0  0 
  9 10  1  0  0  0  0 
 10 11  1  0  0  0  0 
 11 12  1  0  0  0  0 
 12 13  1  0  0  0  0 
 13 14  1  0  0  0  0 
 14 15  1  0  0  0  0 
 14 16  2  0  0  0  0 
M  END
> <Name>
Dodecanedioic acid

> <Source>
DSSTox2DMolFile

> <Tox>
2.914

> <CAS>
693-23-2

$$$$

  CDK

 11 10  0  0  0  0  0  0  0  0999 V2000
    6.9113   -0.0000    0.0000 C   0  0  0  0  0  0  0  0  0  0  0  0
    8.0632   -0.6635    0.0000 C   0  0  0  0  0  0  0  0  0  0  0  0
    9.2151   -0.0000    0.0000 O   0  0  0  0  0  0  0  0  0  0  0  0
    8.0632   -1.9997    0.0000 C   0  0  0  0  0  0  0  0  0  0  0  0
    6.9113   -2.6632    0.0000 C   0  0  0  0  0  0  0  0  0  0  0  0
    5.7595   -1.9997    0.0000 C   0  0  0  0  0  0  0  0  0  0  0  0
    4.6076   -2.6632    0.0000 C   0  0  0  0  0  0  0  0  0  0  0  0
    3.4557   -1.9997    0.0000 C   0  0  0  0  0  0  0  0  0  0  0  0
    2.3038   -2.6632    0.0000 C   0  0  0  0  0  0  0  0  0  0  0  0
    1.1519   -1.9997    0.0000 C   0  0  0  0  0  0  0  0  0  0  0  0
    0.0000   -2.6632    0.0000 C   0  0  0  0  0  0  0  0  0  0  0  0
  1  2  1  0  0  0  0 
  2  3  2  0  0  0  0 
  2  4  1  0  0  0  0 
  4  5  1  0  0  0  0 
  5  6  1  0  0  0  0 
  6  7  1  0  0  0  0 
  7  8  1  0  0  0  0 
  8  9  1  0  0  0  0 
  9 10  1  0  0  0  0 
 10 11  1  0  0  0  0 
M  END
> <Name>
2-Decanone

> <Source>
DSSTox2DMolFile

> <Tox>
3.582

> <CAS>
693-54-9

$$$$

  CDK

 11 10  0  0  0  0  0  0  0  0999 V2000
    0.0000   -0.6673    0.0000 C   0  0  0  0  0  0  0  0  0  0  0  0
    1.1505   -0.0000    0.0000 C   0  0  0  0  0  0  0  0  0  0  0  0
    2.3010   -0.6673    0.0000 C   0  0  0  0  0  0  0  0  0  0  0  0
    3.4515   -0.0000    0.0000 C   0  0  0  0  0  0  0  0  0  0  0  0
    4.6020   -0.6673    0.0000 C   0  0  0  0  0  0  0  0  0  0  0  0
    5.7525   -0.0000    0.0000 O   0  0  0  0  0  0  0  0  0  0  0  0
    6.9029   -0.6673    0.0000 C   0  0  0  0  0  0  0  0  0  0  0  0
    8.0534   -0.0000    0.0000 C   0  0  0  0  0  0  0  0  0  0  0  0
    9.2039   -0.6673    0.0000 C   0  0  0  0  0  0  0  0  0  0  0  0
   10.3544   -0.0000    0.0000 C   0  0  0  0  0  0  0  0  0  0  0  0
   11.5049   -0.6673    0.0000 C   0  0  0  0  0  0  0  0  0  0  0  0
  1  2  1  0  0  0  0 
  2  3  1  0  0  0  0 
  3  4  1  0  0  0  0 
  4  5  1  0  0  0  0 
  5  6  1  0  0  0  0 
  6  7  1  0  0  0  0 
  7  8  1  0  0  0  0 
  8  9  1  0  0  0  0 
  9 10  1  0  0  0  0 
 10 11  1  0  0  0  0 
M  END
> <Name>
Pentane, 1,1'-oxybis-

> <Source>
DSSTox2DMolFile

> <Tox>
4.090

> <CAS>
693-65-2

$$$$

  CDK

 10 10  0  0  0  0  0  0  0  0999 V2000
    0.0000    1.7493    0.0000 C   0  0  0  0  0  0  0  0  0  0  0  0
    0.9996    1.7493    0.0000 C   0  0  0  0  0  0  0  0  0  0  0  0
    1.4994    2.5990    0.0000 C   0  0  0  0  0  0  0  0  0  0  0  0
    1.4994    0.8997    0.0000 C   0  0  0  0  0  0  0  0  0  0  0  0
    0.9996    3.4987    0.0000 C   0  0  0  0  0  0  0  0  0  0  0  0
    2.4991    2.5990    0.0000 C   0  0  0  0  0  0  0  0  0  0  0  0
    0.9996    0.0000    0.0000 O   0  0  0  0  0  0  0  0  0  0  0  0
    2.4991    0.8997    0.0000 C   0  0  0  0  0  0  0  0  0  0  0  0
    2.9989    1.7493    0.0000 C   0  0  0  0  0  0  0  0  0  0  0  0
    3.9985    1.7493    0.0000 C   0  0  0  0  0  0  0  0  0  0  0  0
  1  2  1  0  0  0  0 
  3  2  2  0  0  0  0 
  2  4  1  0  0  0  0 
  3  5  1  0  0  0  0 
  6  3  1  0  0  0  0 
  4  7  1  0  0  0  0 
  4  8  2  0  0  0  0 
  9  6  2  0  0  0  0 
  8  9  1  0  0  0  0 
  9 10  1  0  0  0  0 
M  END
> <Name>
Phenol, 2,3,5-trimethyl-

> <Source>
NIST2DMolFile

> <Tox>
3.360

> <CAS>
697-82-5

$$$$

  CDK

 10 10  0  0  0  0  0  0  0  0999 V2000
    0.0072   -2.7513   -1.7979 O   0  0  0  0  0  0  0  0  0  0  0  0
   -0.1962   -2.0944   -0.6260 C   0  0  0  0  0  0  0  0  0  0  0  0
    0.4148   -1.8201   -2.6998 C   0  0  0  0  0  0  0  0  0  0  0  0
    0.0772   -0.7540   -0.7697 C   0  0  0  0  0  0  0  0  0  0  0  0
   -0.6320   -2.7590    0.5434 C   0  0  0  0  0  0  0  0  0  0  0  0
    0.4741   -0.5759   -2.1165 C   0  0  0  0  0  0  0  0  0  0  0  0
   -0.8993   -4.0776    0.6111 C   0  0  0  0  0  0  0  0  0  0  0  0
   -1.3358   -4.5727    1.8679 N   0  0  0  0  0  0  0  0  0  0  0  0
   -2.1031   -5.5467    1.8613 O   0  0  0  0  0  0  0  0  0  0  0  0
   -0.9195   -3.9957    2.8834 O   0  0  0  0  0  0  0  0  0  0  0  0
  1  2  1  0  0  0  0 
  1  3  1  0  0  0  0 
  2  4  2  0  0  0  0 
  2  5  1  0  0  0  0 
  6  3  2  0  0  0  0 
  4  6  1  0  0  0  0 
  5  7  2  0  0  0  0 
  8  7  1  0  0  0  0 
  9  8  1  0  0  0  0 
 10  8  2  0  0  0  0 
M  CHG  1   8   1
M  CHG  1   9  -1
M  END
> <Name>
Furan, 2-(2-nitroethenyl)- (9CI)

> <Source>
Chemidplus3DMolFile

> <Tox>
5.040

> <CAS>
699-18-3

$$$$

  CDK

 11 11  0  0  0  0  0  0  0  0999 V2000
    0.1069    0.9681    0.0000 C   0  0  0  0  0  0  0  0  0  0  0  0
   -0.5617   -0.2793    0.0000 C   0  0  0  0  0  0  0  0  0  0  0  0
    1.5154    1.0151   -0.0004 C   0  0  0  0  0  0  0  0  0  0  0  0
   -0.5110    2.1672    0.0001 O   0  0  0  0  0  0  0  0  0  0  0  0
    0.2089   -1.4592    0.0001 C   0  0  0  0  0  0  0  0  0  0  0  0
   -2.0343   -0.3588    0.0000 N   0  0  0  0  0  0  0  0  0  0  0  0
    2.2485   -0.1608   -0.0003 C   0  0  0  0  0  0  0  0  0  0  0  0
    1.5857   -1.4004    0.0000 C   0  0  0  0  0  0  0  0  0  0  0  0
   -2.6118   -1.4222   -0.0001 O   0  0  0  0  0  0  0  0  0  0  0  0
   -2.6640    0.6975    0.0001 O   0  0  0  0  0  0  0  0  0  0  0  0
    3.7321   -0.1046    0.0003 C   0  0  0  0  0  0  0  0  0  0  0  0
  1  2  1  0  0  0  0 
  1  3  2  0  0  0  0 
  1  4  1  0  0  0  0 
  2  5  2  0  0  0  0 
  2  6  1  0  0  0  0 
  7  3  1  0  0  0  0 
  5  8  1  0  0  0  0 
  6  9  2  0  0  0  0 
  6 10  1  0  0  0  0 
  8  7  2  0  0  0  0 
  7 11  1  0  0  0  0 
M  CHG  1   6   1
M  CHG  1  10  -1
M  END
> <Name>
Phenol, 5-methyl-2-nitro-

> <Source>
DougDB3DMolFile

> <Tox>
3.590

> <CAS>
700-38-9

$$$$

  CDK

 12 12  0  0  0  0  0  0  0  0999 V2000
    3.4835    1.5146    0.0000 C   0  0  0  0  0  0  0  0  0  0  0  0
    3.4835    2.4738    0.0000 C   0  0  0  0  0  0  0  0  0  0  0  0
    2.5747    1.0097    0.0000 C   0  0  0  0  0  0  0  0  0  0  0  0
    2.5747    2.9786    0.0000 C   0  0  0  0  0  0  0  0  0  0  0  0
    4.3417    3.0291    0.0000 C   0  0  0  0  0  0  0  0  0  0  0  0
    1.7670    1.5146    0.0000 C   0  0  0  0  0  0  0  0  0  0  0  0
    2.5747    0.0000    0.0000 O   0  0  0  0  0  0  0  0  0  0  0  0
    1.7670    2.5243    0.0000 C   0  0  0  0  0  0  0  0  0  0  0  0
    5.2000    2.5243    0.0000 O   0  0  0  0  0  0  0  0  0  0  0  0
    0.8582    1.0097    0.0000 N   0  0  0  0  0  0  0  0  0  0  0  0
    0.0000    1.5146    0.0000 O   0  0  0  0  0  0  0  0  0  0  0  0
    0.8582    0.0000    0.0000 O   0  0  0  0  0  0  0  0  0  0  0  0
  2  1  2  0  0  0  0 
  1  3  1  0  0  0  0 
  4  2  1  0  0  0  0 
  2  5  1  0  0  0  0 
  3  6  2  0  0  0  0 
  3  7  1  0  0  0  0 
  8  4  2  0  0  0  0 
  5  9  2  0  0  0  0 
  6  8  1  0  0  0  0 
  6 10  1  0  0  0  0 
 10 11  2  0  0  0  0 
 10 12  2  0  0  0  0 
M  END
> <Name>
3-Hydroxy-4-nitrobenzaldehyde

> <Source>
NIST2DMolFile

> <Tox>
3.270

> <CAS>
704-13-2

$$$$

  CDK

 12 12  0  0  0  0  0  0  0  0999 V2000
    6.1233    0.5061    0.0000 C   0  0  0  0  0  0  0  0  0  0  0  0
    6.1233    1.4676    0.0000 C   0  0  0  0  0  0  0  0  0  0  0  0
    5.2124    0.0000    0.0000 C   0  0  0  0  0  0  0  0  0  0  0  0
    5.2124    1.9736    0.0000 C   0  0  0  0  0  0  0  0  0  0  0  0
    4.3521    0.5061    0.0000 C   0  0  0  0  0  0  0  0  0  0  0  0
    4.3521    1.4676    0.0000 C   0  0  0  0  0  0  0  0  0  0  0  0
    3.4412    0.0000    0.0000 C   0  0  0  0  0  0  0  0  0  0  0  0
    2.6315    0.5061    0.0000 C   0  0  0  0  0  0  0  0  0  0  0  0
    1.7206    0.0000    0.0000 C   0  0  0  0  0  0  0  0  0  0  0  0
    2.6315    1.4676    0.0000 O   0  0  0  0  0  0  0  0  0  0  0  0
    0.8603    0.5061    0.0000 C   0  0  0  0  0  0  0  0  0  0  0  0
    0.0000    0.0000    0.0000 C   0  0  0  0  0  0  0  0  0  0  0  0
  2  1  2  0  0  0  0 
  1  3  1  0  0  0  0 
  4  2  1  0  0  0  0 
  3  5  2  0  0  0  0 
  6  4  2  0  0  0  0 
  5  6  1  0  0  0  0 
  5  7  1  0  0  0  0 
  7  8  1  0  0  0  0 
  9  8  1  0  0  0  0 
  8 10  1  0  0  0  0 
 11  9  1  0  0  0  0 
 12 11  1  0  0  0  0 
M  END
> <Name>
Benzeneethanol, alpha-propyl-

> <Source>
NIST2DMolFile

> <Tox>
3.160

> <CAS>
705-73-7

$$$$

  CDK

 12 12  0  0  0  0  0  0  0  0999 V2000
    0.0000    0.5575    0.0000 C   0  0  0  0  0  0  0  0  0  0  0  0
    0.0000    1.5205    0.0000 C   0  0  0  0  0  0  0  0  0  0  0  0
    0.8616    0.0507    0.0000 C   0  0  0  0  0  0  0  0  0  0  0  0
    0.8616    2.0273    0.0000 C   0  0  0  0  0  0  0  0  0  0  0  0
    1.7739    0.5575    0.0000 C   0  0  0  0  0  0  0  0  0  0  0  0
    1.7739    1.5205    0.0000 O   0  0  0  0  0  0  0  0  0  0  0  0
    0.8616    2.9903    0.0000 O   0  0  0  0  0  0  0  0  0  0  0  0
    2.6355    0.0000    0.0000 C   0  0  0  0  0  0  0  0  0  0  0  0
    3.4971    0.5068    0.0000 C   0  0  0  0  0  0  0  0  0  0  0  0
    4.3587    0.0000    0.0000 C   0  0  0  0  0  0  0  0  0  0  0  0
    5.2203    0.5068    0.0000 C   0  0  0  0  0  0  0  0  0  0  0  0
    6.0819    0.0000    0.0000 C   0  0  0  0  0  0  0  0  0  0  0  0
  1  2  1  0  0  0  0 
  3  1  1  0  0  0  0 
  2  4  1  0  0  0  0 
  5  3  1  0  0  0  0 
  4  6  1  0  0  0  0 
  4  7  2  0  0  0  0 
  6  5  1  0  0  0  0 
  5  8  1  0  0  0  0 
  8  9  1  0  0  0  0 
  9 10  1  0  0  0  0 
 10 11  1  0  0  0  0 
 11 12  1  0  0  0  0 
M  END
> <Name>
2H-Pyran-2-one, tetrahydro-6-pentyl-

> <Source>
NIST2DMolFile

> <Tox>
2.923

> <CAS>
705-86-2

$$$$

  CDK

 12 12  0  0  0  0  0  0  0  0999 V2000
   10.3444   -1.6034    0.0000 C   0  0  0  0  0  0  0  0  0  0  0  0
    9.1962   -2.2654    0.0000 C   0  0  0  0  0  0  0  0  0  0  0  0
    8.0376   -1.6034    0.0000 C   0  0  0  0  0  0  0  0  0  0  0  0
    6.8894   -2.2654    0.0000 C   0  0  0  0  0  0  0  0  0  0  0  0
    5.7308   -1.6034    0.0000 C   0  0  0  0  0  0  0  0  0  0  0  0
    4.5826   -2.2654    0.0000 C   0  0  0  0  0  0  0  0  0  0  0  0
    3.4343   -1.6034    0.0000 C   0  0  0  0  0  0  0  0  0  0  0  0
    2.2137   -2.1413    0.0000 O   0  0  0  0  0  0  0  0  0  0  0  0
    3.2895   -0.2793    0.0000 C   0  0  0  0  0  0  0  0  0  0  0  0
    1.3241   -1.1482    0.0000 C   0  0  0  0  0  0  0  0  0  0  0  0
    1.9861   -0.0000    0.0000 C   0  0  0  0  0  0  0  0  0  0  0  0
    0.0000   -1.2931    0.0000 O   0  0  0  0  0  0  0  0  0  0  0  0
  1  2  1  0  0  0  0 
  2  3  1  0  0  0  0 
  3  4  1  0  0  0  0 
  4  5  1  0  0  0  0 
  5  6  1  0  0  0  0 
  6  7  1  0  0  0  0 
  7  8  1  0  0  0  0 
  7  9  1  0  0  0  0 
  8 10  1  0  0  0  0 
 11  9  1  0  0  0  0 
 10 12  2  0  0  0  0 
 10 11  1  0  0  0  0 
M  END
> <Name>
2(3H)-Furanone, 5-hexyldihydro-

> <Source>
DSSTox2DMolFile

> <Tox>
3.493

> <CAS>
706-14-9

$$$$

  CDK

 13 14  0  0  0  0  0  0  0  0999 V2000
    2.6190    2.9716    0.0000 C   0  0  0  0  0  0  0  0  0  0  0  0
    3.4752    3.4752    0.0000 O   0  0  0  0  0  0  0  0  0  0  0  0
    2.6190    2.0146    0.0000 C   0  0  0  0  0  0  0  0  0  0  0  0
    1.7124    1.5110    0.0000 C   0  0  0  0  0  0  0  0  0  0  0  0
    3.4752    1.5110    0.0000 C   0  0  0  0  0  0  0  0  0  0  0  0
    1.7124    0.5037    0.0000 C   0  0  0  0  0  0  0  0  0  0  0  0
    0.8562    2.0146    0.0000 C   0  0  0  0  0  0  0  0  0  0  0  0
    4.3314    2.0146    0.0000 O   0  0  0  0  0  0  0  0  0  0  0  0
    3.4752    0.5037    0.0000 C   0  0  0  0  0  0  0  0  0  0  0  0
    2.6190    0.0000    0.0000 C   0  0  0  0  0  0  0  0  0  0  0  0
    0.8562    0.0000    0.0000 C   0  0  0  0  0  0  0  0  0  0  0  0
    0.0000    1.5110    0.0000 C   0  0  0  0  0  0  0  0  0  0  0  0
    0.0000    0.5037    0.0000 C   0  0  0  0  0  0  0  0  0  0  0  0
  1  2  2  0  0  0  0 
  1  3  1  0  0  0  0 
  4  3  2  0  0  0  0 
  3  5  1  0  0  0  0 
  4  6  1  0  0  0  0 
  7  4  1  0  0  0  0 
  5  8  1  0  0  0  0 
  5  9  2  0  0  0  0 
 10  6  2  0  0  0  0 
  6 11  1  0  0  0  0 
 12  7  2  0  0  0  0 
  9 10  1  0  0  0  0 
 11 13  2  0  0  0  0 
 13 12  1  0  0  0  0 
M  END
> <Name>
1-Naphthalenecarboxaldehyde, 2-hydroxy-

> <Source>
NIST2DMolFile

> <Tox>
4.320

> <CAS>
708-06-5

$$$$

  CDK

 13 13  0  0  0  0  0  0  0  0999 V2000
    2.5070    1.7907    0.0000 C   0  0  0  0  0  0  0  0  0  0  0  0
    1.5349    1.7907    0.0000 C   0  0  0  0  0  0  0  0  0  0  0  0
    3.0186    2.6093    0.0000 C   0  0  0  0  0  0  0  0  0  0  0  0
    1.0233    2.6093    0.0000 C   0  0  0  0  0  0  0  0  0  0  0  0
    1.0233    0.8698    0.0000 N   0  0  0  0  0  0  0  0  0  0  0  0
    2.5070    3.4791    0.0000 C   0  0  0  0  0  0  0  0  0  0  0  0
    4.0419    2.6093    0.0000 N   0  0  0  0  0  0  0  0  0  0  0  0
    1.5349    3.4791    0.0000 C   0  0  0  0  0  0  0  0  0  0  0  0
    0.0000    2.6093    0.0000 I   0  0  0  0  0  0  0  0  0  0  0  0
    0.0000    0.8698    0.0000 O   0  0  0  0  0  0  0  0  0  0  0  0
    1.5349    0.0000    0.0000 O   0  0  0  0  0  0  0  0  0  0  0  0
    4.5535    1.7907    0.0000 O   0  0  0  0  0  0  0  0  0  0  0  0
    4.5535    3.4791    0.0000 O   0  0  0  0  0  0  0  0  0  0  0  0
  2  1  2  0  0  0  0 
  1  3  1  0  0  0  0 
  4  2  1  0  0  0  0 
  2  5  1  0  0  0  0 
  3  6  2  0  0  0  0 
  3  7  1  0  0  0  0 
  8  4  2  0  0  0  0 
  4  9  1  0  0  0  0 
  5 10  2  0  0  0  0 
  5 11  2  0  0  0  0 
  6  8  1  0  0  0  0 
  7 12  2  0  0  0  0 
  7 13  2  0  0  0  0 
M  END
> <Name>
1-Iodo-2,4-dinitrobenzene

> <Source>
NIST2DMolFile

> <Tox>
5.120

> <CAS>
709-49-9

$$$$

  CDK

 19 19  0  0  0  0  0  0  0  0999 V2000
    2.6612   -5.7579    0.0000 O   0  0  0  0  0  0  0  0  0  0  0  0
    3.3248   -4.6105    0.0000 C   0  0  0  0  0  0  0  0  0  0  0  0
    2.6612   -3.4561    0.0000 C   0  0  0  0  0  0  0  0  0  0  0  0
    4.6589   -4.6105    0.0000 C   0  0  0  0  0  0  0  0  0  0  0  0
    3.3248   -2.3018    0.0000 C   0  0  0  0  0  0  0  0  0  0  0  0
    1.3272   -3.4561    0.0000 C   0  0  0  0  0  0  0  0  0  0  0  0
    5.3225   -3.4561    0.0000 C   0  0  0  0  0  0  0  0  0  0  0  0
    5.3225   -5.7579    0.0000 C   0  0  0  0  0  0  0  0  0  0  0  0
    4.6589   -2.3018    0.0000 C   0  0  0  0  0  0  0  0  0  0  0  0
    1.3272   -4.7833    0.0000 C   0  0  0  0  0  0  0  0  0  0  0  0
    0.0000   -3.4561    0.0000 C   0  0  0  0  0  0  0  0  0  0  0  0
    1.3272   -2.1290    0.0000 C   0  0  0  0  0  0  0  0  0  0  0  0
    5.9860   -6.9123    0.0000 C   0  0  0  0  0  0  0  0  0  0  0  0
    4.1681   -6.4284    0.0000 C   0  0  0  0  0  0  0  0  0  0  0  0
    6.4699   -5.0943    0.0000 C   0  0  0  0  0  0  0  0  0  0  0  0
    5.3225   -1.1544    0.0000 C   0  0  0  0  0  0  0  0  0  0  0  0
    6.4699   -1.8179    0.0000 C   0  0  0  0  0  0  0  0  0  0  0  0
    4.1681   -0.4839    0.0000 C   0  0  0  0  0  0  0  0  0  0  0  0
    5.9860   -0.0000    0.0000 C   0  0  0  0  0  0  0  0  0  0  0  0
  1  2  1  0  0  0  0 
  2  3  2  0  0  0  0 
  2  4  1  0  0  0  0 
  3  5  1  0  0  0  0 
  3  6  1  0  0  0  0 
  7  4  2  0  0  0  0 
  4  8  1  0  0  0  0 
  5  9  2  0  0  0  0 
  6 10  1  0  0  0  0 
  6 11  1  0  0  0  0 
  6 12  1  0  0  0  0 
  9  7  1  0  0  0  0 
  8 13  1  0  0  0  0 
  8 14  1  0  0  0  0 
  8 15  1  0  0  0  0 
  9 16  1  0  0  0  0 
 16 17  1  0  0  0  0 
 16 18  1  0  0  0  0 
 16 19  1  0  0  0  0 
M  END
> <Name>
Phenol, 2,4,6-tri-tert-butyl- (6CI,7CI,8CI)

> <Source>
DSSTox2DMolFile

> <Tox>
3.360

> <CAS>
732-26-3

$$$$

  CDK

  7  6  0  0  0  0  0  0  0  0999 V2000
    1.5260   -1.1541   -0.0003 O   0  0  0  0  0  0  0  0  0  0  0  0
    0.9212   -0.0823    0.0007 C   0  0  0  0  0  0  0  0  0  0  0  0
    1.5759    1.1301    0.0005 N   0  0  0  0  0  0  0  0  0  0  0  0
   -0.6158    0.0122    0.0000 C   0  0  0  0  0  0  0  0  0  0  0  0
   -1.0946    0.7644   -1.2506 C   0  0  0  0  0  0  0  0  0  0  0  0
   -1.2148   -1.4052   -0.0172 C   0  0  0  0  0  0  0  0  0  0  0  0
   -1.0978    0.7349    1.2669 C   0  0  0  0  0  0  0  0  0  0  0  0
  1  2  2  0  0  0  0 
  3  2  1  0  0  0  0 
  4  2  1  0  0  0  0 
  4  5  1  0  0  0  0 
  4  6  1  0  0  0  0 
  4  7  1  0  0  0  0 
M  END
> <Name>
2,2-dimethylpropanamide

> <Source>
Chemidplus3DMolFile

> <Tox>
1.519

> <CAS>
754-10-9

$$$$

  CDK

  7  6  0  0  0  0  0  0  0  0999 V2000
    2.5864    1.4922    0.0000 N   0  0  0  0  0  0  0  0  0  0  0  0
    1.7409    0.9948    0.0000 C   0  0  0  0  0  0  0  0  0  0  0  0
    2.5864    2.4870    0.0000 C   0  0  0  0  0  0  0  0  0  0  0  0
    3.4818    0.9948    0.0000 C   0  0  0  0  0  0  0  0  0  0  0  0
    0.8953    1.4922    0.0000 C   0  0  0  0  0  0  0  0  0  0  0  0
    1.7409    0.0000    0.0000 O   0  0  0  0  0  0  0  0  0  0  0  0
    0.0000    0.9948    0.0000 C   0  0  0  0  0  0  0  0  0  0  0  0
  1  2  1  0  0  0  0 
  1  3  1  0  0  0  0 
  1  4  1  0  0  0  0 
  2  5  1  0  0  0  0 
  2  6  2  0  0  0  0 
  5  7  1  0  0  0  0 
M  END
> <Name>
N,N-dimethylpropanamide

> <Source>
NIST2DMolFile

> <Tox>
1.426

> <CAS>
758-96-3

$$$$

  CDK

  7  6  0  0  0  0  0  0  0  0999 V2000
    2.3050   -1.8163    0.0000 O   0  0  0  0  0  0  0  0  0  0  0  0
    3.4575   -1.1525    0.0000 C   0  0  0  0  0  0  0  0  0  0  0  0
    1.1525   -1.1525    0.0000 C   0  0  0  0  0  0  0  0  0  0  0  0
    4.1213   -2.3050    0.0000 C   0  0  0  0  0  0  0  0  0  0  0  0
    2.7936   -0.0000    0.0000 C   0  0  0  0  0  0  0  0  0  0  0  0
    4.6099   -0.4887    0.0000 C   0  0  0  0  0  0  0  0  0  0  0  0
    0.0000   -1.8163    0.0000 O   0  0  0  0  0  0  0  0  0  0  0  0
  1  2  1  0  0  0  0 
  1  3  1  0  0  0  0 
  2  4  1  0  0  0  0 
  2  5  1  0  0  0  0 
  2  6  1  0  0  0  0 
  3  7  2  0  0  0  0 
M  END
> <Name>
Formic acid, 1,1-dimethylethyl ester

> <Source>
DSSTox2DMolFile

> <Tox>
1.628

> <CAS>
762-75-4

$$$$

  CDK

  8  7  0  0  0  0  0  0  0  0999 V2000
    1.5052   -1.2288   -0.0024 O   0  0  0  0  0  0  0  0  0  0  0  0
    1.3977   -0.0054    0.0095 C   0  0  0  0  0  0  0  0  0  0  0  0
    0.2155    0.7080    0.0113 N   0  0  0  0  0  0  0  0  0  0  0  0
    2.6019    0.8978   -0.0018 C   0  0  0  0  0  0  0  0  0  0  0  0
   -1.0897    0.0727   -0.0011 C   0  0  0  0  0  0  0  0  0  0  0  0
   -2.1785    1.1518    0.0049 C   0  0  0  0  0  0  0  0  0  0  0  0
   -1.2170   -0.7856   -1.2639 C   0  0  0  0  0  0  0  0  0  0  0  0
   -1.2352   -0.8105    1.2436 C   0  0  0  0  0  0  0  0  0  0  0  0
  1  2  2  0  0  0  0 
  3  2  1  0  0  0  0 
  2  4  1  0  0  0  0 
  3  5  1  0  0  0  0 
  5  6  1  0  0  0  0 
  5  7  1  0  0  0  0 
  5  8  1  0  0  0  0 
M  END
> <Name>
N-tert-butylacetamide

> <Source>
Chemidplus3DMolFile

> <Tox>
1.842

> <CAS>
762-84-5

$$$$

  CDK

  6  5  0  0  0  0  0  0  0  0999 V2000
    1.7391    1.4906    0.0000 C   0  0  0  0  0  0  0  0  0  0  0  0
    0.8944    0.9938    0.0000 C   0  0  0  0  0  0  0  0  0  0  0  0
    2.5838    0.9938    0.0000 C   0  0  0  0  0  0  0  0  0  0  0  0
    0.8944    0.0000    0.0000 C   0  0  0  0  0  0  0  0  0  0  0  0
    0.0000    1.4906    0.0000 C   0  0  0  0  0  0  0  0  0  0  0  0
    3.4781    1.4906    0.0000 O   0  0  0  0  0  0  0  0  0  0  0  0
  1  2  1  0  0  0  0 
  1  3  1  0  0  0  0 
  2  4  1  0  0  0  0 
  2  5  2  0  0  0  0 
  3  6  1  0  0  0  0 
M  END
> <Name>
3-Buten-1-ol, 3-methyl-

> <Source>
NIST2DMolFile

> <Tox>
1.820

> <CAS>
763-32-6

$$$$

  CDK

  5  4  0  0  0  0  0  0  0  0999 V2000
    0.6659   -1.1502    0.0000 C   0  0  0  0  0  0  0  0  0  0  0  0
    0.0000   -0.0000    0.0000 O   0  0  0  0  0  0  0  0  0  0  0  0
    1.9978   -1.1502    0.0000 C   0  0  0  0  0  0  0  0  0  0  0  0
    3.3250   -1.1502    0.0000 C   0  0  0  0  0  0  0  0  0  0  0  0
    4.6568   -1.1502    0.0000 C   0  0  0  0  0  0  0  0  0  0  0  0
  1  2  1  0  0  0  0 
  1  3  1  0  0  0  0 
  3  4  3  0  0  0  0 
  4  5  1  0  0  0  0 
M  END
> <Name>
But-2-yn-1-ol

> <Source>
DSSTox2DMolFile

> <Tox>
2.132

> <CAS>
764-01-2

$$$$

  CDK

  7  6  0  0  0  0  0  0  0  0999 V2000
    3.4122    0.8901    0.0000 C   0  0  0  0  0  0  0  0  0  0  0  0
    2.4231    0.8901    0.0000 C   0  0  0  0  0  0  0  0  0  0  0  0
    3.9561    0.0000    0.0000 C   0  0  0  0  0  0  0  0  0  0  0  0
    1.4341    0.8901    0.0000 C   0  0  0  0  0  0  0  0  0  0  0  0
    4.9946    0.0000    0.0000 C   0  0  0  0  0  0  0  0  0  0  0  0
    0.4451    0.8901    0.0000 C   0  0  0  0  0  0  0  0  0  0  0  0
    0.0000    1.7308    0.0000 O   0  0  0  0  0  0  0  0  0  0  0  0
  1  2  1  0  0  0  0 
  1  3  1  0  0  0  0 
  2  4  3  0  0  0  0 
  3  5  1  0  0  0  0 
  4  6  1  0  0  0  0 
  6  7  1  0  0  0  0 
M  END
> <Name>
Hex-2-yn-1-ol

> <Source>
NIST2DMolFile

> <Tox>
2.616

> <CAS>
764-60-3

$$$$

  CDK

  7  7  0  0  0  0  0  0  0  0999 V2000
    0.1943   -0.7884    0.0000 S   0  0  0  0  0  0  0  0  0  0  0  0
    0.9789   -0.5335    0.0000 C   0  0  0  0  0  0  0  0  0  0  0  0
   -0.2907   -0.1210    0.0000 C   0  0  0  0  0  0  0  0  0  0  0  0
    1.6463   -1.0184    0.0000 Br  0  0  0  0  0  0  0  0  0  0  0  0
    0.9789    0.2915    0.0000 C   0  0  0  0  0  0  0  0  0  0  0  0
    0.1943    0.5464    0.0000 C   0  0  0  0  0  0  0  0  0  0  0  0
   -1.1157   -0.1210    0.0000 C   0  0  0  0  0  0  0  0  0  0  0  0
  1  2  1  0  0  0  0 
  1  3  1  0  0  0  0 
  2  4  1  0  0  0  0 
  2  5  2  0  0  0  0 
  6  3  2  0  0  0  0 
  3  7  1  0  0  0  0 
  5  6  1  0  0  0  0 
M  END
> <Name>
2-bromo-5-methylthiophene

> <Source>
Smiles

> <Tox>
3.650

> <CAS>
765-58-2

$$$$

  CDK

  9  9  0  0  0  0  0  0  0  0999 V2000
    0.0000    0.7899    0.0000 C   0  0  0  0  0  0  0  0  0  0  0  0
    0.5430    1.7279    0.0000 O   0  0  0  0  0  0  0  0  0  0  0  0
    1.5304    1.7279    0.0000 C   0  0  0  0  0  0  0  0  0  0  0  0
    2.0241    0.8392    0.0000 C   0  0  0  0  0  0  0  0  0  0  0  0
    2.0241    2.5671    0.0000 C   0  0  0  0  0  0  0  0  0  0  0  0
    1.5304    0.0000    0.0000 Cl  0  0  0  0  0  0  0  0  0  0  0  0
    3.0114    0.8392    0.0000 C   0  0  0  0  0  0  0  0  0  0  0  0
    3.0114    2.5671    0.0000 C   0  0  0  0  0  0  0  0  0  0  0  0
    3.5051    1.7279    0.0000 C   0  0  0  0  0  0  0  0  0  0  0  0
  1  2  1  0  0  0  0 
  2  3  1  0  0  0  0 
  3  4  2  0  0  0  0 
  5  3  1  0  0  0  0 
  4  6  1  0  0  0  0 
  4  7  1  0  0  0  0 
  8  5  2  0  0  0  0 
  7  9  2  0  0  0  0 
  9  8  1  0  0  0  0 
M  END
> <Name>
1-chloro-2-methoxybenzene

> <Source>
NIST2DMolFile

> <Tox>
3.220

> <CAS>
766-51-8

$$$$

  CDK

  9  9  0  0  0  0  0  0  0  0999 V2000
   -2.7593    1.6519   -0.0005 Cl  0  0  0  0  0  0  0  0  0  0  0  0
   -1.4932    0.4861    0.0003 C   0  0  0  0  0  0  0  0  0  0  0  0
   -0.1615    0.9014    0.0006 C   0  0  0  0  0  0  0  0  0  0  0  0
   -1.7994   -0.8748   -0.0002 C   0  0  0  0  0  0  0  0  0  0  0  0
    0.8639   -0.0444    0.0005 C   0  0  0  0  0  0  0  0  0  0  0  0
   -0.7741   -1.8205   -0.0002 C   0  0  0  0  0  0  0  0  0  0  0  0
    0.5575   -1.4053    0.0001 C   0  0  0  0  0  0  0  0  0  0  0  0
    2.2284    0.3802    0.0000 C   0  0  0  0  0  0  0  0  0  0  0  0
    3.3377    0.7254   -0.0005 N   0  0  0  0  0  0  0  0  0  0  0  0
  1  2  1  0  0  0  0 
  3  2  1  0  0  0  0 
  2  4  2  0  0  0  0 
  5  3  2  0  0  0  0 
  6  4  1  0  0  0  0 
  5  7  1  0  0  0  0 
  5  8  1  0  0  0  0 
  7  6  2  0  0  0  0 
  9  8  3  0  0  0  0 
M  END
> <Name>
3-chlorobenzonitrile

> <Source>
Chemidplus3DMolFile

> <Tox>
2.940

> <CAS>
766-84-7

$$$$

  CDK

 10 10  0  0  0  0  0  0  0  0999 V2000
    0.0000    0.0000    0.0000 C   0  0  0  0  0  0  0  0  0  0  0  0
    0.5042    0.8571    0.0000 C   0  0  0  0  0  0  0  0  0  0  0  0
    1.5126    0.8571    0.0000 C   0  0  0  0  0  0  0  0  0  0  0  0
    2.0168    1.7142    0.0000 C   0  0  0  0  0  0  0  0  0  0  0  0
    2.0168    0.0000    0.0000 C   0  0  0  0  0  0  0  0  0  0  0  0
    3.0251    1.7142    0.0000 C   0  0  0  0  0  0  0  0  0  0  0  0
    3.0251    0.0000    0.0000 C   0  0  0  0  0  0  0  0  0  0  0  0
    3.5293    0.8571    0.0000 C   0  0  0  0  0  0  0  0  0  0  0  0
    4.5377    0.8571    0.0000 C   0  0  0  0  0  0  0  0  0  0  0  0
    5.0419    1.7142    0.0000 O   0  0  0  0  0  0  0  0  0  0  0  0
  1  2  1  0  0  0  0 
  2  3  1  0  0  0  0 
  4  3  2  0  0  0  0 
  3  5  1  0  0  0  0 
  6  4  1  0  0  0  0 
  5  7  2  0  0  0  0 
  8  6  2  0  0  0  0 
  7  8  1  0  0  0  0 
  8  9  1  0  0  0  0 
  9 10  1  0  0  0  0 
M  END
> <Name>
Benzenemethanol, 4-ethyl-

> <Source>
NIST2DMolFile

> <Tox>
3.070

> <CAS>
768-59-2

$$$$

  CDK

 11 13  0  0  0  0  0  0  0  0999 V2000
   -2.6926    0.0000   -0.0008 O   0  0  0  0  0  0  0  0  0  0  0  0
   -1.2723    0.0073   -0.0041 C   0  0  0  0  0  0  0  0  0  0  0  0
   -0.7502    1.2612    0.7200 C   0  0  0  0  0  0  0  0  0  0  0  0
   -0.7619   -1.2507    0.7213 C   0  0  0  0  0  0  0  0  0  0  0  0
   -0.7494    0.0040   -1.4508 C   0  0  0  0  0  0  0  0  0  0  0  0
    0.7873    1.2603    0.7293 C   0  0  0  0  0  0  0  0  0  0  0  0
    0.7754   -1.2643    0.7308 C   0  0  0  0  0  0  0  0  0  0  0  0
    0.7880   -0.0033   -1.4553 C   0  0  0  0  0  0  0  0  0  0  0  0
    1.2868   -0.0039    1.4515 C   0  0  0  0  0  0  0  0  0  0  0  0
    1.3003    1.2490   -0.7217 C   0  0  0  0  0  0  0  0  0  0  0  0
    1.2886   -1.2595   -0.7202 C   0  0  0  0  0  0  0  0  0  0  0  0
  1  2  1  0  0  0  0 
  2  3  1  0  0  0  0 
  2  4  1  0  0  0  0 
  2  5  1  0  0  0  0 
  6  3  1  0  0  0  0 
  7  4  1  0  0  0  0 
  8  5  1  0  0  0  0 
  6  9  1  0  0  0  0 
  6 10  1  0  0  0  0 
  7  9  1  0  0  0  0 
  7 11  1  0  0  0  0 
  8 10  1  0  0  0  0 
  8 11  1  0  0  0  0 
M  END
> <Name>
adamantan-1-ol

> <Source>
Chemidplus3DMolFile

> <Tox>
2.920

> <CAS>
768-95-6

$$$$

  CDK

 11 11  0  0  0  0  0  0  0  0999 V2000
   -1.2085   -1.2624    0.0027 C   0  0  0  0  0  0  0  0  0  0  0  0
    0.2194   -1.2183    0.0015 C   0  0  0  0  0  0  0  0  0  0  0  0
   -1.9539   -0.1148    0.0016 C   0  0  0  0  0  0  0  0  0  0  0  0
    0.8653   -0.0079   -0.0001 C   0  0  0  0  0  0  0  0  0  0  0  0
    0.9351   -2.5190   -0.0035 C   0  0  0  0  0  0  0  0  0  0  0  0
   -3.4430   -0.1359    0.0002 C   0  0  0  0  0  0  0  0  0  0  0  0
   -1.3179    1.1275    0.0000 N   0  0  0  0  0  0  0  0  0  0  0  0
    0.1075    1.2442   -0.0009 C   0  0  0  0  0  0  0  0  0  0  0  0
    2.2818    0.0901   -0.0011 C   0  0  0  0  0  0  0  0  0  0  0  0
    0.5332    2.3920   -0.0022 O   0  0  0  0  0  0  0  0  0  0  0  0
    3.4390    0.1775    0.0040 N   0  0  0  0  0  0  0  0  0  0  0  0
  1  2  1  0  0  0  0 
  3  1  2  0  0  0  0 
  2  4  2  0  0  0  0 
  2  5  1  0  0  0  0 
  3  6  1  0  0  0  0 
  7  3  1  0  0  0  0 
  4  8  1  0  0  0  0 
  4  9  1  0  0  0  0 
  8  7  1  0  0  0  0 
  8 10  2  0  0  0  0 
  9 11  3  0  0  0  0 
M  END
> <Name>
3-Pyridinecarbonitrile, 1,2-dihydro-4,6-dimethyl-2-oxo-

> <Source>
DougDB3DMolFile

> <Tox>
2.300

> <CAS>
769-28-8

$$$$

  CDK

 11 11  0  0  0  0  0  0  0  0999 V2000
    0.0000    0.0000    0.0000 O   0  0  0  0  0  0  0  0  0  0  0  0
    0.3600    1.2600    0.1800 C   0  0  0  0  0  0  0  0  0  0  0  0
    1.7200    1.6400    0.1200 C   0  0  0  0  0  0  0  0  0  0  0  0
   -0.6200    2.2400    0.4000 C   0  0  0  0  0  0  0  0  0  0  0  0
    2.6400    0.7000   -0.1000 F   0  0  0  0  0  0  0  0  0  0  0  0
    2.0800    2.9800    0.3200 C   0  0  0  0  0  0  0  0  0  0  0  0
   -1.9200    1.9000    0.4400 F   0  0  0  0  0  0  0  0  0  0  0  0
   -0.2600    3.5800    0.6000 C   0  0  0  0  0  0  0  0  0  0  0  0
    1.1000    3.9400    0.5600 C   0  0  0  0  0  0  0  0  0  0  0  0
    3.3600    3.3200    0.2800 F   0  0  0  0  0  0  0  0  0  0  0  0
   -1.1800    4.5200    0.8200 F   0  0  0  0  0  0  0  0  0  0  0  0
  1  2  1  0  0  0  0 
  2  3  2  0  0  0  0 
  2  4  1  0  0  0  0 
  3  5  1  0  0  0  0 
  3  6  1  0  0  0  0 
  7  4  1  0  0  0  0 
  4  8  2  0  0  0  0 
  9  6  2  0  0  0  0 
  6 10  1  0  0  0  0 
 11  8  1  0  0  0  0 
  8  9  1  0  0  0  0 
M  END
> <Name>
2,3,5,6-tetrafluorophenol

> <Source>
NIH3DMolFile

> <Tox>
4.170

> <CAS>
769-39-1

$$$$

  CDK

 11 11  0  0  0  0  0  0  0  0999 V2000
   -0.8037    0.6704   -0.0002 C   0  0  0  0  0  0  0  0  0  0  0  0
    0.6061    0.1976   -0.0001 C   0  0  0  0  0  0  0  0  0  0  0  0
   -1.1877    1.8238   -0.0005 O   0  0  0  0  0  0  0  0  0  0  0  0
   -1.7293   -0.3455    0.0001 O   0  0  0  0  0  0  0  0  0  0  0  0
    1.6249    1.1561    0.0002 C   0  0  0  0  0  0  0  0  0  0  0  0
    0.9354   -1.1607   -0.0003 C   0  0  0  0  0  0  0  0  0  0  0  0
   -3.0823   -0.0432    0.0005 C   0  0  0  0  0  0  0  0  0  0  0  0
    2.9564    0.7574    0.0003 C   0  0  0  0  0  0  0  0  0  0  0  0
    2.2701   -1.5506   -0.0002 C   0  0  0  0  0  0  0  0  0  0  0  0
   -3.9151   -1.0843    0.0001 C   0  0  0  0  0  0  0  0  0  0  0  0
    3.2807   -0.5951    0.0001 C   0  0  0  0  0  0  0  0  0  0  0  0
  1  2  1  0  0  0  0 
  1  3  2  0  0  0  0 
  1  4  1  0  0  0  0 
  2  5  1  0  0  0  0 
  2  6  2  0  0  0  0 
  4  7  1  0  0  0  0 
  5  8  2  0  0  0  0 
  9  6  1  0  0  0  0 
  7 10  2  0  0  0  0 
  8 11  1  0  0  0  0 
 11  9  2  0  0  0  0 
M  END
> <Name>
Benzoic acid, ethenyl ester (9CI)

> <Source>
DougDB3DMolFile

> <Tox>
3.080

> <CAS>
769-78-8

$$$$

  CDK

 11 11  0  0  0  0  0  0  0  0999 V2000
    2.4654    0.1006    0.0000 C   0  0  0  0  0  0  0  0  0  0  0  0
    1.5094    0.1006    0.0000 C   0  0  0  0  0  0  0  0  0  0  0  0
    2.9685    0.9560    0.0000 C   0  0  0  0  0  0  0  0  0  0  0  0
    1.0063    0.9560    0.0000 C   0  0  0  0  0  0  0  0  0  0  0  0
    2.4654    1.8616    0.0000 C   0  0  0  0  0  0  0  0  0  0  0  0
    3.9748    0.9560    0.0000 C   0  0  0  0  0  0  0  0  0  0  0  0
    1.5094    1.8616    0.0000 C   0  0  0  0  0  0  0  0  0  0  0  0
    0.0000    0.9560    0.0000 N   0  0  0  0  0  0  0  0  0  0  0  0
    3.9748    0.0000    0.0000 C   0  0  0  0  0  0  0  0  0  0  0  0
    3.9748    2.0125    0.0000 C   0  0  0  0  0  0  0  0  0  0  0  0
    4.9810    0.9560    0.0000 C   0  0  0  0  0  0  0  0  0  0  0  0
  2  1  2  0  0  0  0 
  1  3  1  0  0  0  0 
  4  2  1  0  0  0  0 
  3  5  2  0  0  0  0 
  3  6  1  0  0  0  0 
  7  4  2  0  0  0  0 
  4  8  1  0  0  0  0 
  5  7  1  0  0  0  0 
  6  9  1  0  0  0  0 
  6 10  1  0  0  0  0 
  6 11  1  0  0  0  0 
M  END
> <Name>
Benzenamine, 4-(1,1-dimethylethyl)-

> <Source>
NIST2DMolFile

> <Tox>
3.360

> <CAS>
769-92-6

$$$$

  CDK

 12 12  0  0  0  0  0  0  0  0999 V2000
    1.4484    2.5972    0.0000 C   0  0  0  0  0  0  0  0  0  0  0  0
    0.9490    1.7481    0.0000 C   0  0  0  0  0  0  0  0  0  0  0  0
    2.4474    2.5972    0.0000 C   0  0  0  0  0  0  0  0  0  0  0  0
    0.9490    3.4963    0.0000 F   0  0  0  0  0  0  0  0  0  0  0  0
    1.4484    0.8990    0.0000 C   0  0  0  0  0  0  0  0  0  0  0  0
    0.0000    1.7481    0.0000 F   0  0  0  0  0  0  0  0  0  0  0  0
    2.9468    3.4963    0.0000 F   0  0  0  0  0  0  0  0  0  0  0  0
    2.9468    1.7481    0.0000 C   0  0  0  0  0  0  0  0  0  0  0  0
    2.4474    0.8990    0.0000 C   0  0  0  0  0  0  0  0  0  0  0  0
    0.9490    0.0000    0.0000 O   0  0  0  0  0  0  0  0  0  0  0  0
    3.9458    1.7481    0.0000 F   0  0  0  0  0  0  0  0  0  0  0  0
    2.9468    0.0000    0.0000 F   0  0  0  0  0  0  0  0  0  0  0  0
  1  2  2  0  0  0  0 
  3  1  1  0  0  0  0 
  1  4  1  0  0  0  0 
  2  5  1  0  0  0  0 
  2  6  1  0  0  0  0 
  3  7  1  0  0  0  0 
  8  3  2  0  0  0  0 
  5  9  2  0  0  0  0 
  5 10  1  0  0  0  0 
  9  8  1  0  0  0  0 
  8 11  1  0  0  0  0 
  9 12  1  0  0  0  0 
M  END
> <Name>
Phenol, pentafluoro-

> <Source>
NIST2DMolFile

> <Tox>
4.630

> <CAS>
771-61-9

$$$$

  CDK

 12 12  0  0  0  0  0  0  0  0999 V2000
    1.4645    2.5756    0.0000 C   0  0  0  0  0  0  0  0  0  0  0  0
    1.0100    1.7171    0.0000 C   0  0  0  0  0  0  0  0  0  0  0  0
    2.4746    2.5756    0.0000 C   0  0  0  0  0  0  0  0  0  0  0  0
    1.0100    3.4846    0.0000 F   0  0  0  0  0  0  0  0  0  0  0  0
    1.4645    0.9090    0.0000 C   0  0  0  0  0  0  0  0  0  0  0  0
    0.0000    1.7171    0.0000 O   0  0  0  0  0  0  0  0  0  0  0  0
    2.9796    1.7171    0.0000 C   0  0  0  0  0  0  0  0  0  0  0  0
    2.9796    3.4846    0.0000 F   0  0  0  0  0  0  0  0  0  0  0  0
    2.4746    0.9090    0.0000 C   0  0  0  0  0  0  0  0  0  0  0  0
    1.0100    0.0000    0.0000 F   0  0  0  0  0  0  0  0  0  0  0  0
    3.9896    1.7171    0.0000 O   0  0  0  0  0  0  0  0  0  0  0  0
    2.9796    0.0000    0.0000 F   0  0  0  0  0  0  0  0  0  0  0  0
  1  2  2  0  0  0  0 
  3  1  1  0  0  0  0 
  1  4  1  0  0  0  0 
  2  5  1  0  0  0  0 
  2  6  1  0  0  0  0 
  7  3  2  0  0  0  0 
  3  8  1  0  0  0  0 
  5  9  2  0  0  0  0 
  5 10  1  0  0  0  0 
  9  7  1  0  0  0  0 
  7 11  1  0  0  0  0 
  9 12  1  0  0  0  0 
M  END
> <Name>
2,3,5,6-Tetrafluorohydroquinone

> <Source>
NIST2DMolFile

> <Tox>
4.840

> <CAS>
771-63-1

$$$$

  CDK

 12 12  0  0  0  0  0  0  0  0999 V2000
    3.0088    0.8669    0.0000 C   0  0  0  0  0  0  0  0  0  0  0  0
    2.0908    0.8669    0.0000 C   0  0  0  0  0  0  0  0  0  0  0  0
    3.5187    1.6829    0.0000 C   0  0  0  0  0  0  0  0  0  0  0  0
    3.5187    0.0000    0.0000 F   0  0  0  0  0  0  0  0  0  0  0  0
    1.5809    1.6829    0.0000 C   0  0  0  0  0  0  0  0  0  0  0  0
    1.5809    0.0000    0.0000 F   0  0  0  0  0  0  0  0  0  0  0  0
    3.0088    2.6008    0.0000 C   0  0  0  0  0  0  0  0  0  0  0  0
    4.5896    1.6829    0.0000 F   0  0  0  0  0  0  0  0  0  0  0  0
    2.0908    2.6008    0.0000 C   0  0  0  0  0  0  0  0  0  0  0  0
    0.5100    1.6829    0.0000 N   0  0  0  0  0  0  0  0  0  0  0  0
    0.0000    2.6008    0.0000 O   0  0  0  0  0  0  0  0  0  0  0  0
    0.0510    0.8669    0.0000 O   0  0  0  0  0  0  0  0  0  0  0  0
  2  1  2  0  0  0  0 
  1  3  1  0  0  0  0 
  1  4  1  0  0  0  0 
  5  2  1  0  0  0  0 
  2  6  1  0  0  0  0 
  3  7  2  0  0  0  0 
  3  8  1  0  0  0  0 
  9  5  2  0  0  0  0 
  5 10  1  0  0  0  0 
  7  9  1  0  0  0  0 
 10 11  2  0  0  0  0 
 10 12  2  0  0  0  0 
M  END
> <Name>
1,2,3-Trifluoro-4-nitrobenzene

> <Source>
NIST2DMolFile

> <Tox>
4.890

> <CAS>
771-69-7

$$$$

  CDK

 13 14  0  0  0  0  0  0  0  0999 V2000
   -3.4185   -0.4524   -1.0501 O   0  0  0  0  0  0  0  0  0  0  0  0
   -2.7285   -1.4855   -0.3583 C   0  0  0  0  0  0  0  0  0  0  0  0
   -2.0113   -0.8989    0.8582 C   0  0  0  0  0  0  0  0  0  0  0  0
   -0.9823    0.1240    0.4865 C   0  0  0  0  0  0  0  0  0  0  0  0
    0.3538   -0.2235    0.2285 C   0  0  0  0  0  0  0  0  0  0  0  0
   -1.4013    1.4523    0.4040 C   0  0  0  0  0  0  0  0  0  0  0  0
    1.2779    0.7907   -0.1183 C   0  0  0  0  0  0  0  0  0  0  0  0
    0.7930   -1.5551    0.3069 C   0  0  0  0  0  0  0  0  0  0  0  0
   -0.4925    2.4496    0.0626 C   0  0  0  0  0  0  0  0  0  0  0  0
    0.8387    2.1224   -0.1971 C   0  0  0  0  0  0  0  0  0  0  0  0
    2.6139    0.4434   -0.3765 C   0  0  0  0  0  0  0  0  0  0  0  0
    2.1242   -1.8821    0.0474 C   0  0  0  0  0  0  0  0  0  0  0  0
    3.0330   -0.8847   -0.2937 C   0  0  0  0  0  0  0  0  0  0  0  0
  1  2  1  0  0  0  0 
  3  2  1  0  0  0  0 
  4  3  1  0  0  0  0 
  4  5  1  0  0  0  0 
  4  6  2  0  0  0  0 
  5  7  1  0  0  0  0 
  5  8  2  0  0  0  0 
  6  9  1  0  0  0  0 
  7 10  1  0  0  0  0 
  7 11  2  0  0  0  0 
  8 12  1  0  0  0  0 
 10  9  2  0  0  0  0 
 11 13  1  0  0  0  0 
 12 13  2  0  0  0  0 
M  END
> <Name>
2-naphthalen-1-ylethanol

> <Source>
Chemidplus3DMolFile

> <Tox>
3.270

> <CAS>
773-99-9

$$$$

  CDK

  6  5  0  0  0  0  0  0  0  0999 V2000
   -1.4541   -1.4581   -0.5684 Br  0  0  0  0  0  0  0  0  0  0  0  0
   -0.6579   -0.0472    0.5109 C   0  0  0  0  0  0  0  0  0  0  0  0
    0.7531    0.1250   -0.0131 C   0  0  0  0  0  0  0  0  0  0  0  0
   -1.4864    1.2165    0.3916 C   0  0  0  0  0  0  0  0  0  0  0  0
    1.0363    0.9492   -0.8829 O   0  0  0  0  0  0  0  0  0  0  0  0
    1.8090   -0.7855    0.5619 C   0  0  0  0  0  0  0  0  0  0  0  0
  1  2  1  0  0  0  0 
  2  3  1  0  0  0  0 
  2  4  1  0  0  0  0 
  5  3  2  0  0  0  0 
  3  6  1  0  0  0  0 
M  END
> <Name>
3-bromobutan-2-one

> <Source>
Chemidplus3DMolFile

> <Tox>
4.854

> <CAS>
814-75-5

$$$$

  CDK

  6  5  0  0  0  0  0  0  0  0999 V2000
   -2.4176   -0.6111   -0.6655 Br  0  0  0  0  0  0  0  0  0  0  0  0
   -1.3312    0.0564    0.7882 C   0  0  0  0  0  0  0  0  0  0  0  0
    0.0323    0.3379    0.2169 C   0  0  0  0  0  0  0  0  0  0  0  0
    0.2877    1.4245   -0.3025 O   0  0  0  0  0  0  0  0  0  0  0  0
    1.0478   -0.7897    0.2933 C   0  0  0  0  0  0  0  0  0  0  0  0
    2.3810   -0.4180   -0.3305 C   0  0  0  0  0  0  0  0  0  0  0  0
  1  2  1  0  0  0  0 
  3  2  1  0  0  0  0 
  4  3  2  0  0  0  0 
  5  3  1  0  0  0  0 
  5  6  1  0  0  0  0 
M  END
> <Name>
1-bromobutan-2-one

> <Source>
Chemidplus3DMolFile

> <Tox>
5.602

> <CAS>
816-40-0

$$$$

  CDK

 12 11  0  0  0  0  0  0  0  0999 V2000
    8.6565    0.0000    0.0000 C   0  0  0  0  0  0  0  0  0  0  0  0
    7.8058    0.5004    0.0000 C   0  0  0  0  0  0  0  0  0  0  0  0
    6.9052    0.0000    0.0000 O   0  0  0  0  0  0  0  0  0  0  0  0
    6.0545    0.5004    0.0000 C   0  0  0  0  0  0  0  0  0  0  0  0
    6.0545    1.5011    0.0000 O   0  0  0  0  0  0  0  0  0  0  0  0
    5.2039    0.0000    0.0000 C   0  0  0  0  0  0  0  0  0  0  0  0
    4.3032    0.5004    0.0000 C   0  0  0  0  0  0  0  0  0  0  0  0
    3.4526    0.0000    0.0000 C   0  0  0  0  0  0  0  0  0  0  0  0
    2.6019    0.5004    0.0000 C   0  0  0  0  0  0  0  0  0  0  0  0
    1.7013    0.0000    0.0000 C   0  0  0  0  0  0  0  0  0  0  0  0
    0.8506    0.5004    0.0000 C   0  0  0  0  0  0  0  0  0  0  0  0
    0.0000    0.0000    0.0000 C   0  0  0  0  0  0  0  0  0  0  0  0
  1  2  2  0  0  0  0 
  2  3  1  0  0  0  0 
  3  4  1  0  0  0  0 
  5  4  2  0  0  0  0 
  4  6  1  0  0  0  0 
  6  7  1  0  0  0  0 
  7  8  1  0  0  0  0 
  8  9  1  0  0  0  0 
  9 10  1  0  0  0  0 
 10 11  1  0  0  0  0 
 11 12  1  0  0  0  0 
M  END
> <Name>
Octanoic acid, vinyl ester (mixed isomers)

> <Source>
NIST2DMolFile

> <Tox>
2.700

> <CAS>
818-44-0

$$$$

  CDK

  8  7  0  0  0  0  0  0  0  0999 V2000
    0.0000   -0.0000    0.0000 C   0  0  0  0  0  0  0  0  0  0  0  0
    0.6642   -1.1549    0.0000 C   0  0  0  0  0  0  0  0  0  0  0  0
    1.9926   -1.1549    0.0000 C   0  0  0  0  0  0  0  0  0  0  0  0
    2.6569   -0.0000    0.0000 O   0  0  0  0  0  0  0  0  0  0  0  0
    2.6569   -2.3038    0.0000 O   0  0  0  0  0  0  0  0  0  0  0  0
    3.9913   -2.3038    0.0000 C   0  0  0  0  0  0  0  0  0  0  0  0
    4.6555   -1.1549    0.0000 C   0  0  0  0  0  0  0  0  0  0  0  0
    5.9839   -1.1549    0.0000 O   0  0  0  0  0  0  0  0  0  0  0  0
  1  2  2  0  0  0  0 
  2  3  1  0  0  0  0 
  3  4  2  0  0  0  0 
  3  5  1  0  0  0  0 
  5  6  1  0  0  0  0 
  6  7  1  0  0  0  0 
  7  8  1  0  0  0  0 
M  END
> <Name>
2-Propenoic acid, 2-hydroxyethyl ester

> <Source>
DSSTox2DMolFile

> <Tox>
3.690

> <CAS>
818-61-1

$$$$

  CDK

  6  5  0  0  0  0  0  0  0  0999 V2000
    2.6135    0.5026    0.0000 C   0  0  0  0  0  0  0  0  0  0  0  0
    1.7088    0.0000    0.0000 C   0  0  0  0  0  0  0  0  0  0  0  0
    3.4679    0.0000    0.0000 C   0  0  0  0  0  0  0  0  0  0  0  0
    0.8544    0.5026    0.0000 C   0  0  0  0  0  0  0  0  0  0  0  0
    4.3223    0.5026    0.0000 O   0  0  0  0  0  0  0  0  0  0  0  0
    0.0000    0.0000    0.0000 C   0  0  0  0  0  0  0  0  0  0  0  0
  1  2  1  0  0  0  0 
  1  3  1  0  0  0  0 
  2  4  1  0  0  0  0 
  3  5  1  0  0  0  0 
  4  6  2  0  0  0  0 
M  END
> <Name>
Pent-4-en-1-ol

> <Source>
NIST2DMolFile

> <Tox>
1.785

> <CAS>
821-09-0

$$$$

  CDK

 10  9  0  0  0  0  0  0  0  0999 V2000
    0.0000   -1.9996    0.0000 C   0  0  0  0  0  0  0  0  0  0  0  0
    1.1518   -1.3361    0.0000 C   0  0  0  0  0  0  0  0  0  0  0  0
    2.3036   -1.9996    0.0000 C   0  0  0  0  0  0  0  0  0  0  0  0
    3.4555   -1.3361    0.0000 C   0  0  0  0  0  0  0  0  0  0  0  0
    4.6073   -1.9996    0.0000 C   0  0  0  0  0  0  0  0  0  0  0  0
    5.7591   -1.3361    0.0000 C   0  0  0  0  0  0  0  0  0  0  0  0
    6.9109   -1.9996    0.0000 C   0  0  0  0  0  0  0  0  0  0  0  0
    8.0628   -1.3361    0.0000 C   0  0  0  0  0  0  0  0  0  0  0  0
    8.0628   -0.0000    0.0000 O   0  0  0  0  0  0  0  0  0  0  0  0
    9.2146   -1.9996    0.0000 C   0  0  0  0  0  0  0  0  0  0  0  0
  1  2  1  0  0  0  0 
  2  3  1  0  0  0  0 
  3  4  1  0  0  0  0 
  4  5  1  0  0  0  0 
  5  6  1  0  0  0  0 
  6  7  1  0  0  0  0 
  7  8  1  0  0  0  0 
  8  9  2  0  0  0  0 
  8 10  1  0  0  0  0 
M  END
> <Name>
2-Nonanone

> <Source>
DSSTox2DMolFile

> <Tox>
3.660

> <CAS>
821-55-6

$$$$

  CDK

 10 10  0  0  0  0  0  0  0  0999 V2000
    2.0331   -0.6880   -0.0006 O   0  0  0  0  0  0  0  0  0  0  0  0
    0.7734   -0.1695    0.0009 C   0  0  0  0  0  0  0  0  0  0  0  0
    2.1489   -2.1096   -0.0001 C   0  0  0  0  0  0  0  0  0  0  0  0
    0.5742    1.2111    0.0005 C   0  0  0  0  0  0  0  0  0  0  0  0
   -0.3225   -1.0323    0.0008 C   0  0  0  0  0  0  0  0  0  0  0  0
    1.6360    2.0644   -0.0010 O   0  0  0  0  0  0  0  0  0  0  0  0
   -0.7211    1.7289    0.0002 C   0  0  0  0  0  0  0  0  0  0  0  0
   -1.6178   -0.5146    0.0003 C   0  0  0  0  0  0  0  0  0  0  0  0
   -1.8170    0.8660    0.0000 C   0  0  0  0  0  0  0  0  0  0  0  0
   -2.6872   -1.3565   -0.0011 O   0  0  0  0  0  0  0  0  0  0  0  0
  1  2  1  0  0  0  0 
  1  3  1  0  0  0  0 
  2  4  2  0  0  0  0 
  2  5  1  0  0  0  0 
  6  4  1  0  0  0  0 
  4  7  1  0  0  0  0 
  5  8  2  0  0  0  0 
  7  9  2  0  0  0  0 
 10  8  1  0  0  0  0 
  8  9  1  0  0  0  0 
M  END
> <Name>
2-methoxybenzene-1,4-diol

> <Source>
Chemidplus3DMolFile

> <Tox>
5.200

> <CAS>
824-46-4

$$$$

  CDK

 10 10  0  0  0  0  0  0  0  0999 V2000
    2.4991    0.8997    0.0000 C   0  0  0  0  0  0  0  0  0  0  0  0
    2.9989    0.0000    0.0000 Cl  0  0  0  0  0  0  0  0  0  0  0  0
    2.9989    1.7493    0.0000 C   0  0  0  0  0  0  0  0  0  0  0  0
    1.4994    0.8997    0.0000 C   0  0  0  0  0  0  0  0  0  0  0  0
    3.9985    1.7493    0.0000 O   0  0  0  0  0  0  0  0  0  0  0  0
    2.4991    2.5990    0.0000 C   0  0  0  0  0  0  0  0  0  0  0  0
    0.9996    1.7493    0.0000 C   0  0  0  0  0  0  0  0  0  0  0  0
    1.4994    2.5990    0.0000 C   0  0  0  0  0  0  0  0  0  0  0  0
    0.0000    1.7493    0.0000 O   0  0  0  0  0  0  0  0  0  0  0  0
    0.9996    3.4987    0.0000 Cl  0  0  0  0  0  0  0  0  0  0  0  0
  1  2  1  0  0  0  0 
  1  3  2  0  0  0  0 
  4  1  1  0  0  0  0 
  3  5  1  0  0  0  0 
  3  6  1  0  0  0  0 
  7  4  2  0  0  0  0 
  6  8  2  0  0  0  0 
  8  7  1  0  0  0  0 
  7  9  1  0  0  0  0 
  8 10  1  0  0  0  0 
M  END
> <Name>
Hydroquinone, 2,5-dichloro- (8CI)

> <Source>
NIST2DMolFile

> <Tox>
4.810

> <CAS>
824-69-1

$$$$

  CDK

 12 12  0  0  0  0  0  0  0  0999 V2000
    3.4691    1.5305    0.0000 C   0  0  0  0  0  0  0  0  0  0  0  0
    3.4691    2.4998    0.0000 C   0  0  0  0  0  0  0  0  0  0  0  0
    2.6018    1.0203    0.0000 C   0  0  0  0  0  0  0  0  0  0  0  0
    2.6018    3.0100    0.0000 C   0  0  0  0  0  0  0  0  0  0  0  0
    4.3364    3.0100    0.0000 Br  0  0  0  0  0  0  0  0  0  0  0  0
    1.7856    1.5305    0.0000 C   0  0  0  0  0  0  0  0  0  0  0  0
    2.6018    0.0000    0.0000 Br  0  0  0  0  0  0  0  0  0  0  0  0
    1.7856    2.4998    0.0000 C   0  0  0  0  0  0  0  0  0  0  0  0
    2.6018    4.0303    0.0000 N   0  0  0  0  0  0  0  0  0  0  0  0
    0.8673    3.0100    0.0000 N   0  0  0  0  0  0  0  0  0  0  0  0
    0.0000    2.4998    0.0000 O   0  0  0  0  0  0  0  0  0  0  0  0
    0.8673    4.0303    0.0000 O   0  0  0  0  0  0  0  0  0  0  0  0
  2  1  2  0  0  0  0 
  1  3  1  0  0  0  0 
  4  2  1  0  0  0  0 
  2  5  1  0  0  0  0 
  3  6  2  0  0  0  0 
  3  7  1  0  0  0  0 
  8  4  2  0  0  0  0 
  4  9  1  0  0  0  0 
  6  8  1  0  0  0  0 
  8 10  1  0  0  0  0 
 10 11  2  0  0  0  0 
 10 12  2  0  0  0  0 
M  END
> <Name>
Benzenamine, 2,4-dibromo-6-nitro-

> <Source>
NIST2DMolFile

> <Tox>
4.620

> <CAS>
827-23-6

$$$$

  CDK

 12 13  0  0  0  0  0  0  0  0999 V2000
   -0.6172    0.6181   -0.0258 C   0  0  0  0  0  0  0  0  0  0  0  0
   -0.8575   -0.7765   -0.0103 C   0  0  0  0  0  0  0  0  0  0  0  0
    0.7057    1.0864   -0.0781 C   0  0  0  0  0  0  0  0  0  0  0  0
   -1.7069    1.5032    0.0113 C   0  0  0  0  0  0  0  0  0  0  0  0
    0.2322   -1.6617   -0.0477 C   0  0  0  0  0  0  0  0  0  0  0  0
   -2.1805   -1.2448    0.0418 C   0  0  0  0  0  0  0  0  0  0  0  0
    1.7764    0.1926   -0.1147 C   0  0  0  0  0  0  0  0  0  0  0  0
   -3.0148    1.0204    0.0631 C   0  0  0  0  0  0  0  0  0  0  0  0
    1.5400   -1.1788   -0.0995 C   0  0  0  0  0  0  0  0  0  0  0  0
   -3.2512   -0.3510    0.0783 C   0  0  0  0  0  0  0  0  0  0  0  0
    3.1410    0.6939   -0.1700 C   0  0  0  0  0  0  0  0  0  0  0  0
    4.2329    0.0981    0.3515 C   0  0  0  0  0  0  0  0  0  0  0  0
  1  2  1  0  0  0  0 
  1  3  1  0  0  0  0 
  1  4  2  0  0  0  0 
  2  5  1  0  0  0  0 
  2  6  2  0  0  0  0 
  3  7  2  0  0  0  0 
  4  8  1  0  0  0  0 
  5  9  2  0  0  0  0 
  6 10  1  0  0  0  0 
  7  9  1  0  0  0  0 
  7 11  1  0  0  0  0 
  8 10  2  0  0  0  0 
 11 12  2  0  0  0  0 
M  END
> <Name>
2-ethenylnaphthalene

> <Source>
Chemidplus3DMolFile

> <Tox>
4.240

> <CAS>
827-54-3

$$$$

  CDK

 14 15  0  0  0  0  0  0  0  0999 V2000
    5.7555   -0.6691    0.0000 C   0  0  0  0  0  0  0  0  0  0  0  0
    6.9082   -0.0000    0.0000 C   0  0  0  0  0  0  0  0  0  0  0  0
    5.7555   -1.9991    0.0000 C   0  0  0  0  0  0  0  0  0  0  0  0
    8.0609   -0.6691    0.0000 C   0  0  0  0  0  0  0  0  0  0  0  0
    6.9082   -2.6601    0.0000 C   0  0  0  0  0  0  0  0  0  0  0  0
    4.6028   -2.6601    0.0000 O   0  0  0  0  0  0  0  0  0  0  0  0
    8.0609   -1.9991    0.0000 C   0  0  0  0  0  0  0  0  0  0  0  0
    3.4581   -1.9991    0.0000 C   0  0  0  0  0  0  0  0  0  0  0  0
    2.3054   -2.6601    0.0000 C   0  0  0  0  0  0  0  0  0  0  0  0
    3.4581   -0.6691    0.0000 C   0  0  0  0  0  0  0  0  0  0  0  0
    1.1527   -1.9991    0.0000 C   0  0  0  0  0  0  0  0  0  0  0  0
    2.3054   -0.0000    0.0000 C   0  0  0  0  0  0  0  0  0  0  0  0
    1.1527   -0.6691    0.0000 C   0  0  0  0  0  0  0  0  0  0  0  0
    0.0000   -0.0000    0.0000 O   0  0  0  0  0  0  0  0  0  0  0  0
  1  2  2  0  0  0  0 
  1  3  1  0  0  0  0 
  2  4  1  0  0  0  0 
  5  3  2  0  0  0  0 
  3  6  1  0  0  0  0 
  4  7  2  0  0  0  0 
  7  5  1  0  0  0  0 
  6  8  1  0  0  0  0 
  8  9  2  0  0  0  0 
  8 10  1  0  0  0  0 
  9 11  1  0  0  0  0 
 12 10  2  0  0  0  0 
 11 13  2  0  0  0  0 
 13 12  1  0  0  0  0 
 13 14  1  0  0  0  0 
M  END
> <Name>
Phenol, p-phenoxy- (8CI)

> <Source>
DSSTox2DMolFile

> <Tox>
4.360

> <CAS>
831-82-3

$$$$

  CDK

 16 17  0  0  0  0  0  0  0  0999 V2000
    3.4567   -2.6617    0.0000 C   0  0  0  0  0  0  0  0  0  0  0  0
    2.3022   -1.9911    0.0000 C   0  0  0  0  0  0  0  0  0  0  0  0
    4.6113   -1.9911    0.0000 C   0  0  0  0  0  0  0  0  0  0  0  0
    3.4567   -3.9891    0.0000 O   0  0  0  0  0  0  0  0  0  0  0  0
    1.1545   -2.6617    0.0000 C   0  0  0  0  0  0  0  0  0  0  0  0
    2.3022   -0.6637    0.0000 C   0  0  0  0  0  0  0  0  0  0  0  0
    4.6113   -0.6637    0.0000 C   0  0  0  0  0  0  0  0  0  0  0  0
    5.7589   -2.6617    0.0000 C   0  0  0  0  0  0  0  0  0  0  0  0
    1.1545   -3.9891    0.0000 O   0  0  0  0  0  0  0  0  0  0  0  0
    0.0000   -1.9911    0.0000 C   0  0  0  0  0  0  0  0  0  0  0  0
    1.1545   -0.0000    0.0000 C   0  0  0  0  0  0  0  0  0  0  0  0
    3.4567   -0.0000    0.0000 O   0  0  0  0  0  0  0  0  0  0  0  0
    5.7589   -0.0000    0.0000 C   0  0  0  0  0  0  0  0  0  0  0  0
    6.9135   -1.9911    0.0000 C   0  0  0  0  0  0  0  0  0  0  0  0
    0.0000   -0.6637    0.0000 C   0  0  0  0  0  0  0  0  0  0  0  0
    6.9135   -0.6637    0.0000 C   0  0  0  0  0  0  0  0  0  0  0  0
  1  2  1  0  0  0  0 
  1  3  1  0  0  0  0 
  1  4  2  0  0  0  0 
  2  5  1  0  0  0  0 
  2  6  2  0  0  0  0 
  3  7  2  0  0  0  0 
  3  8  1  0  0  0  0 
  5  9  1  0  0  0  0 
  5 10  2  0  0  0  0 
 11  6  1  0  0  0  0 
  7 12  1  0  0  0  0 
  7 13  1  0  0  0  0 
 14  8  2  0  0  0  0 
 10 15  1  0  0  0  0 
 15 11  2  0  0  0  0 
 13 16  2  0  0  0  0 
 16 14  1  0  0  0  0 
M  END
> <Name>
2,2'-Dihydroxybenzophenone

> <Source>
DSSTox2DMolFile

> <Tox>
4.160

> <CAS>
835-11-0

$$$$

  CDK

 16 17  0  0  0  0  0  0  0  0999 V2000
    4.6159   -0.6726    0.0000 C   0  0  0  0  0  0  0  0  0  0  0  0
    4.6159   -1.9993    0.0000 C   0  0  0  0  0  0  0  0  0  0  0  0
    3.4642   -0.0000    0.0000 C   0  0  0  0  0  0  0  0  0  0  0  0
    5.7675   -0.0000    0.0000 N   0  0  0  0  0  0  0  0  0  0  0  0
    3.4642   -2.6626    0.0000 C   0  0  0  0  0  0  0  0  0  0  0  0
    2.3033   -0.6726    0.0000 C   0  0  0  0  0  0  0  0  0  0  0  0
    6.9192   -0.6726    0.0000 C   0  0  0  0  0  0  0  0  0  0  0  0
    2.3033   -1.9993    0.0000 C   0  0  0  0  0  0  0  0  0  0  0  0
    8.0801   -0.0000    0.0000 C   0  0  0  0  0  0  0  0  0  0  0  0
    6.9192   -1.9993    0.0000 C   0  0  0  0  0  0  0  0  0  0  0  0
    1.1517   -2.6626    0.0000 N   0  0  0  0  0  0  0  0  0  0  0  0
    9.2133   -0.6726    0.0000 C   0  0  0  0  0  0  0  0  0  0  0  0
    8.0801   -2.6626    0.0000 C   0  0  0  0  0  0  0  0  0  0  0  0
    1.1517   -3.9894    0.0000 O   0  0  0  0  0  0  0  0  0  0  0  0
    0.0000   -1.9993    0.0000 O   0  0  0  0  0  0  0  0  0  0  0  0
    9.2133   -1.9993    0.0000 C   0  0  0  0  0  0  0  0  0  0  0  0
  1  2  2  0  0  0  0 
  1  3  1  0  0  0  0 
  1  4  1  0  0  0  0 
  2  5  1  0  0  0  0 
  6  3  2  0  0  0  0 
  4  7  1  0  0  0  0 
  5  8  2  0  0  0  0 
  8  6  1  0  0  0  0 
  7  9  2  0  0  0  0 
  7 10  1  0  0  0  0 
  8 11  1  0  0  0  0 
  9 12  1  0  0  0  0 
 10 13  2  0  0  0  0 
 11 14  1  0  0  0  0 
 11 15  2  0  0  0  0 
 12 16  2  0  0  0  0 
 13 16  1  0  0  0  0 
M  CHG  1  11   1
M  CHG  1  14  -1
M  END
> <Name>
Benzenamine, 4-nitro-N-phenyl-

> <Source>
DSSTox2DMolFile

> <Tox>
4.890

> <CAS>
836-30-6

$$$$

  CDK

 20 22  0  0  0  0  0  0  0  0999 V2000
    2.9644    3.5171    0.0000 O   0  0  0  0  0  0  0  0  0  0  0  0
    3.4669    2.6127    0.0000 C   0  0  0  0  0  0  0  0  0  0  0  0
    2.9644    1.7586    0.0000 C   0  0  0  0  0  0  0  0  0  0  0  0
    4.4718    2.6127    0.0000 C   0  0  0  0  0  0  0  0  0  0  0  0
    3.4669    0.9044    0.0000 C   0  0  0  0  0  0  0  0  0  0  0  0
    2.0098    1.7586    0.0000 C   0  0  0  0  0  0  0  0  0  0  0  0
    4.9742    1.7586    0.0000 C   0  0  0  0  0  0  0  0  0  0  0  0
    4.4718    0.9044    0.0000 C   0  0  0  0  0  0  0  0  0  0  0  0
    1.5073    0.9044    0.0000 C   0  0  0  0  0  0  0  0  0  0  0  0
    1.5073    2.6127    0.0000 C   0  0  0  0  0  0  0  0  0  0  0  0
    6.0293    1.7586    0.0000 C   0  0  0  0  0  0  0  0  0  0  0  0
    4.9742    0.0000    0.0000 O   0  0  0  0  0  0  0  0  0  0  0  0
    0.5024    0.9044    0.0000 C   0  0  0  0  0  0  0  0  0  0  0  0
    0.5024    2.6127    0.0000 C   0  0  0  0  0  0  0  0  0  0  0  0
    6.5318    2.6127    0.0000 C   0  0  0  0  0  0  0  0  0  0  0  0
    6.5318    0.9044    0.0000 C   0  0  0  0  0  0  0  0  0  0  0  0
    0.0000    1.7586    0.0000 C   0  0  0  0  0  0  0  0  0  0  0  0
    7.5367    2.6127    0.0000 C   0  0  0  0  0  0  0  0  0  0  0  0
    7.5367    0.9044    0.0000 C   0  0  0  0  0  0  0  0  0  0  0  0
    8.0391    1.7586    0.0000 C   0  0  0  0  0  0  0  0  0  0  0  0
  1  2  2  0  0  0  0 
  2  3  1  0  0  0  0 
  4  2  1  0  0  0  0 
  3  5  2  0  0  0  0 
  3  6  1  0  0  0  0 
  7  4  2  0  0  0  0 
  5  8  1  0  0  0  0 
  9  6  2  0  0  0  0 
  6 10  1  0  0  0  0 
  8  7  1  0  0  0  0 
  7 11  1  0  0  0  0 
  8 12  2  0  0  0  0 
 13  9  1  0  0  0  0 
 10 14  2  0  0  0  0 
 15 11  2  0  0  0  0 
 11 16  1  0  0  0  0 
 17 13  2  0  0  0  0 
 14 17  1  0  0  0  0 
 18 15  1  0  0  0  0 
 16 19  2  0  0  0  0 
 20 18  2  0  0  0  0 
 19 20  1  0  0  0  0 
M  END
> <Name>
p-Benzoquinone, 2,5-diphenyl- (8CI)

> <Source>
NIST2DMolFile

> <Tox>
4.480

> <CAS>
844-51-9

$$$$

  CDK

  9  8  0  0  0  0  0  0  0  0999 V2000
    1.1530   -0.0000    0.0000 C   0  0  0  0  0  0  0  0  0  0  0  0
    1.1530   -1.3257    0.0000 C   0  0  0  0  0  0  0  0  0  0  0  0
    0.0000   -1.9954    0.0000 C   0  0  0  0  0  0  0  0  0  0  0  0
    2.2992   -1.9954    0.0000 C   0  0  0  0  0  0  0  0  0  0  0  0
    2.2992   -3.3210    0.0000 O   0  0  0  0  0  0  0  0  0  0  0  0
    3.4522   -1.3257    0.0000 O   0  0  0  0  0  0  0  0  0  0  0  0
    4.6053   -1.9954    0.0000 C   0  0  0  0  0  0  0  0  0  0  0  0
    5.7514   -1.3257    0.0000 C   0  0  0  0  0  0  0  0  0  0  0  0
    6.9045   -1.9954    0.0000 O   0  0  0  0  0  0  0  0  0  0  0  0
  1  2  2  0  0  0  0 
  2  3  1  0  0  0  0 
  2  4  1  0  0  0  0 
  4  5  2  0  0  0  0 
  4  6  1  0  0  0  0 
  6  7  1  0  0  0  0 
  7  8  1  0  0  0  0 
  8  9  1  0  0  0  0 
M  END
> <Name>
2-Propenoic acid, 2-methyl-, 2-hydroxyethyl ester

> <Source>
DSSTox2DMolFile

> <Tox>
1.920

> <CAS>
868-77-9

$$$$

  CDK

  6  6  0  0  0  0  0  0  0  0999 V2000
    1.3304   -1.0738    0.0000 C   0  0  0  0  0  0  0  0  0  0  0  0
    0.0000   -1.0738    0.0000 Br  0  0  0  0  0  0  0  0  0  0  0  0
    2.1104   -0.0000    0.0000 C   0  0  0  0  0  0  0  0  0  0  0  0
    2.1104   -2.1509    0.0000 C   0  0  0  0  0  0  0  0  0  0  0  0
    3.3767   -0.4086    0.0000 S   0  0  0  0  0  0  0  0  0  0  0  0
    3.3767   -1.7390    0.0000 C   0  0  0  0  0  0  0  0  0  0  0  0
  1  2  1  0  0  0  0 
  1  3  2  0  0  0  0 
  1  4  1  0  0  0  0 
  3  5  1  0  0  0  0 
  6  4  2  0  0  0  0 
  5  6  1  0  0  0  0 
M  END
> <Name>
Thiophene, 3-bromo-

> <Source>
DSSTox2DMolFile

> <Tox>
2.960

> <CAS>
872-31-1

$$$$

  CDK

  7  7  0  0  0  0  0  0  0  0999 V2000
    3.2450    0.5900    0.0000 C   0  0  0  0  0  0  0  0  0  0  0  0
    2.5075    1.2784    0.0000 C   0  0  0  0  0  0  0  0  0  0  0  0
    1.6225    0.9833    0.0000 C   0  0  0  0  0  0  0  0  0  0  0  0
    1.2784    0.0000    0.0000 C   0  0  0  0  0  0  0  0  0  0  0  0
    0.7867    1.5734    0.0000 S   0  0  0  0  0  0  0  0  0  0  0  0
    0.2950    0.0000    0.0000 C   0  0  0  0  0  0  0  0  0  0  0  0
    0.0000    0.9833    0.0000 C   0  0  0  0  0  0  0  0  0  0  0  0
  1  2  1  0  0  0  0 
  2  3  1  0  0  0  0 
  3  4  2  0  0  0  0 
  5  3  1  0  0  0  0 
  4  6  1  0  0  0  0 
  7  5  1  0  0  0  0 
  6  7  2  0  0  0  0 
M  END
> <Name>
2-ethylthiophene

> <Source>
NIST2DMolFile

> <Tox>
2.570

> <CAS>
872-55-9

$$$$

  CDK

  9  9  0  0  0  0  0  0  0  0999 V2000
    3.4625    2.6094    0.0000 C   0  0  0  0  0  0  0  0  0  0  0  0
    2.4589    2.6094    0.0000 C   0  0  0  0  0  0  0  0  0  0  0  0
    3.9643    1.7061    0.0000 C   0  0  0  0  0  0  0  0  0  0  0  0
    1.9570    1.7563    0.0000 C   0  0  0  0  0  0  0  0  0  0  0  0
    3.4625    0.8531    0.0000 C   0  0  0  0  0  0  0  0  0  0  0  0
    2.4589    0.8531    0.0000 C   0  0  0  0  0  0  0  0  0  0  0  0
    1.0036    1.7563    0.0000 C   0  0  0  0  0  0  0  0  0  0  0  0
    1.9570    0.0000    0.0000 Cl  0  0  0  0  0  0  0  0  0  0  0  0
    0.0000    1.7563    0.0000 N   0  0  0  0  0  0  0  0  0  0  0  0
  1  2  2  0  0  0  0 
  3  1  1  0  0  0  0 
  2  4  1  0  0  0  0 
  5  3  2  0  0  0  0 
  4  6  2  0  0  0  0 
  4  7  1  0  0  0  0 
  6  5  1  0  0  0  0 
  6  8  1  0  0  0  0 
  7  9  3  0  0  0  0 
M  END
> <Name>
2-chlorobenzonitrile

> <Source>
NIST2DMolFile

> <Tox>
3.280

> <CAS>
873-32-5

$$$$

  CDK

  9  9  0  0  0  0  0  0  0  0999 V2000
    0.0000    1.6967    0.0000 N   0  0  0  0  0  0  0  0  0  0  0  0
    0.9980    1.6967    0.0000 C   0  0  0  0  0  0  0  0  0  0  0  0
    1.9961    1.6967    0.0000 C   0  0  0  0  0  0  0  0  0  0  0  0
    2.4951    0.8483    0.0000 C   0  0  0  0  0  0  0  0  0  0  0  0
    2.4951    2.5949    0.0000 C   0  0  0  0  0  0  0  0  0  0  0  0
    3.4932    0.8483    0.0000 C   0  0  0  0  0  0  0  0  0  0  0  0
    3.4932    2.5949    0.0000 C   0  0  0  0  0  0  0  0  0  0  0  0
    3.9922    0.0000    0.0000 O   0  0  0  0  0  0  0  0  0  0  0  0
    3.9922    1.7466    0.0000 C   0  0  0  0  0  0  0  0  0  0  0  0
  1  2  3  0  0  0  0 
  2  3  1  0  0  0  0 
  3  4  2  0  0  0  0 
  5  3  1  0  0  0  0 
  4  6  1  0  0  0  0 
  7  5  2  0  0  0  0 
  6  8  1  0  0  0  0 
  6  9  2  0  0  0  0 
  9  7  1  0  0  0  0 
M  END
> <Name>
Benzonitrile, 3-hydroxy-

> <Source>
NIST2DMolFile

> <Tox>
2.940

> <CAS>
873-62-1

$$$$

  CDK

  9  9  0  0  0  0  0  0  0  0999 V2000
    2.0598    0.8038    0.0000 C   0  0  0  0  0  0  0  0  0  0  0  0
    1.5574    1.6579    0.0000 C   0  0  0  0  0  0  0  0  0  0  0  0
    3.0143    0.8038    0.0000 C   0  0  0  0  0  0  0  0  0  0  0  0
    2.0598    2.5621    0.0000 C   0  0  0  0  0  0  0  0  0  0  0  0
    0.4521    1.6579    0.0000 C   0  0  0  0  0  0  0  0  0  0  0  0
    3.5167    1.7081    0.0000 C   0  0  0  0  0  0  0  0  0  0  0  0
    3.5167    0.0000    0.0000 Cl  0  0  0  0  0  0  0  0  0  0  0  0
    2.9641    2.5621    0.0000 C   0  0  0  0  0  0  0  0  0  0  0  0
    0.0000    0.7536    0.0000 O   0  0  0  0  0  0  0  0  0  0  0  0
  2  1  2  0  0  0  0 
  1  3  1  0  0  0  0 
  4  2  1  0  0  0  0 
  2  5  1  0  0  0  0 
  3  6  2  0  0  0  0 
  3  7  1  0  0  0  0 
  8  4  2  0  0  0  0 
  5  9  1  0  0  0  0 
  6  8  1  0  0  0  0 
M  END
> <Name>
3-Chlorobenzyl alcohol

> <Source>
NIST2DMolFile

> <Tox>
3.150

> <CAS>
873-63-2

$$$$

  CDK

  9  9  0  0  0  0  0  0  0  0999 V2000
    3.0546    0.0000    0.0000 C   0  0  0  0  0  0  0  0  0  0  0  0
    2.0364    0.0000    0.0000 C   0  0  0  0  0  0  0  0  0  0  0  0
    3.5127    0.8655    0.0000 C   0  0  0  0  0  0  0  0  0  0  0  0
    1.5273    0.8655    0.0000 C   0  0  0  0  0  0  0  0  0  0  0  0
    3.0546    1.7309    0.0000 C   0  0  0  0  0  0  0  0  0  0  0  0
    4.5309    0.8655    0.0000 Cl  0  0  0  0  0  0  0  0  0  0  0  0
    2.0364    1.7309    0.0000 C   0  0  0  0  0  0  0  0  0  0  0  0
    0.5091    0.8655    0.0000 C   0  0  0  0  0  0  0  0  0  0  0  0
    0.0000    0.0509    0.0000 O   0  0  0  0  0  0  0  0  0  0  0  0
  2  1  2  0  0  0  0 
  1  3  1  0  0  0  0 
  4  2  1  0  0  0  0 
  3  5  2  0  0  0  0 
  3  6  1  0  0  0  0 
  7  4  2  0  0  0  0 
  4  8  1  0  0  0  0 
  5  7  1  0  0  0  0 
  8  9  1  0  0  0  0 
M  END
> <Name>
Benzenemethanol, 4-chloro- (9CI)

> <Source>
NIST2DMolFile

> <Tox>
3.250

> <CAS>
873-76-7

$$$$

  CDK

 10 10  0  0  0  0  0  0  0  0999 V2000
    2.4463    0.9174    0.0000 C   0  0  0  0  0  0  0  0  0  0  0  0
    1.5290    0.9174    0.0000 C   0  0  0  0  0  0  0  0  0  0  0  0
    3.0070    1.7328    0.0000 C   0  0  0  0  0  0  0  0  0  0  0  0
    0.9683    1.7328    0.0000 C   0  0  0  0  0  0  0  0  0  0  0  0
    0.9174    0.0000    0.0000 Br  0  0  0  0  0  0  0  0  0  0  0  0
    2.4463    2.5992    0.0000 C   0  0  0  0  0  0  0  0  0  0  0  0
    4.0263    1.7328    0.0000 Cl  0  0  0  0  0  0  0  0  0  0  0  0
    1.5290    2.5992    0.0000 C   0  0  0  0  0  0  0  0  0  0  0  0
    0.0000    1.7328    0.0000 N   0  0  0  0  0  0  0  0  0  0  0  0
    0.9683    3.4656    0.0000 Br  0  0  0  0  0  0  0  0  0  0  0  0
  2  1  2  0  0  0  0 
  1  3  1  0  0  0  0 
  4  2  1  0  0  0  0 
  2  5  1  0  0  0  0 
  3  6  2  0  0  0  0 
  3  7  1  0  0  0  0 
  8  4  2  0  0  0  0 
  4  9  1  0  0  0  0 
  6  8  1  0  0  0  0 
  8 10  1  0  0  0  0 
M  END
> <Name>
Aniline,2,6-dibromo-4-chloro- (6CI,7CI,8CI)

> <Source>
NIST2DMolFile

> <Tox>
4.520

> <CAS>
874-17-9

$$$$

  CDK

 10 10  0  0  0  0  0  0  0  0999 V2000
    0.0000   -3.4531    0.0000 O   0  0  0  0  0  0  0  0  0  0  0  0
    0.6643   -2.3040    0.0000 C   0  0  0  0  0  0  0  0  0  0  0  0
    1.9929   -2.3040    0.0000 C   0  0  0  0  0  0  0  0  0  0  0  0
    2.6571   -1.1490    0.0000 C   0  0  0  0  0  0  0  0  0  0  0  0
    2.6571   -3.4531    0.0000 C   0  0  0  0  0  0  0  0  0  0  0  0
    1.9929   -0.0000    0.0000 Cl  0  0  0  0  0  0  0  0  0  0  0  0
    3.9917   -1.1490    0.0000 C   0  0  0  0  0  0  0  0  0  0  0  0
    3.9917   -3.4531    0.0000 C   0  0  0  0  0  0  0  0  0  0  0  0
    4.6560   -2.3040    0.0000 C   0  0  0  0  0  0  0  0  0  0  0  0
    5.9845   -2.3040    0.0000 Cl  0  0  0  0  0  0  0  0  0  0  0  0
  1  2  2  0  0  0  0 
  2  3  1  0  0  0  0 
  3  4  2  0  0  0  0 
  3  5  1  0  0  0  0 
  4  6  1  0  0  0  0 
  4  7  1  0  0  0  0 
  8  5  2  0  0  0  0 
  7  9  2  0  0  0  0 
  9  8  1  0  0  0  0 
  9 10  1  0  0  0  0 
M  END
> <Name>
Benzaldehyde, 2,4-dichloro-

> <Source>
DSSTox2DMolFile

> <Tox>
4.040

> <CAS>
874-42-0

$$$$

  CDK

 10 10  0  0  0  0  0  0  0  0999 V2000
    1.4930    0.8460    0.0000 C   0  0  0  0  0  0  0  0  0  0  0  0
    1.9906    1.7418    0.0000 S   0  0  0  0  0  0  0  0  0  0  0  0
    0.4977    0.8460    0.0000 C   0  0  0  0  0  0  0  0  0  0  0  0
    2.9859    1.7418    0.0000 C   0  0  0  0  0  0  0  0  0  0  0  0
    0.0000    0.0000    0.0000 C   0  0  0  0  0  0  0  0  0  0  0  0
    3.4836    2.5878    0.0000 C   0  0  0  0  0  0  0  0  0  0  0  0
    3.4836    0.8460    0.0000 C   0  0  0  0  0  0  0  0  0  0  0  0
    4.4789    2.5878    0.0000 C   0  0  0  0  0  0  0  0  0  0  0  0
    4.4789    0.8460    0.0000 C   0  0  0  0  0  0  0  0  0  0  0  0
    4.9765    1.7418    0.0000 C   0  0  0  0  0  0  0  0  0  0  0  0
  1  2  1  0  0  0  0 
  1  3  1  0  0  0  0 
  2  4  1  0  0  0  0 
  3  5  1  0  0  0  0 
  6  4  2  0  0  0  0 
  4  7  1  0  0  0  0 
  8  6  1  0  0  0  0 
  7  9  2  0  0  0  0 
 10  8  2  0  0  0  0 
  9 10  1  0  0  0  0 
M  END
> <Name>
Benzene, (propylthio)- (9CI)

> <Source>
NIST2DMolFile

> <Tox>
3.860

> <CAS>
874-79-3

$$$$

  CDK

 11 11  0  0  0  0  0  0  0  0999 V2000
    3.0754    0.9226    0.0000 C   0  0  0  0  0  0  0  0  0  0  0  0
    2.1015    0.9226    0.0000 C   0  0  0  0  0  0  0  0  0  0  0  0
    3.5880    1.7427    0.0000 C   0  0  0  0  0  0  0  0  0  0  0  0
    1.5890    1.7427    0.0000 C   0  0  0  0  0  0  0  0  0  0  0  0
    1.5890    0.0000    0.0000 C   0  0  0  0  0  0  0  0  0  0  0  0
    3.0754    2.6141    0.0000 C   0  0  0  0  0  0  0  0  0  0  0  0
    4.6131    1.7427    0.0000 O   0  0  0  0  0  0  0  0  0  0  0  0
    2.1015    2.6141    0.0000 C   0  0  0  0  0  0  0  0  0  0  0  0
    0.5638    1.7427    0.0000 C   0  0  0  0  0  0  0  0  0  0  0  0
    0.0000    0.9226    0.0000 C   0  0  0  0  0  0  0  0  0  0  0  0
    0.0000    2.5628    0.0000 O   0  0  0  0  0  0  0  0  0  0  0  0
  2  1  2  0  0  0  0 
  1  3  1  0  0  0  0 
  4  2  1  0  0  0  0 
  2  5  1  0  0  0  0 
  3  6  2  0  0  0  0 
  3  7  1  0  0  0  0 
  8  4  2  0  0  0  0 
  4  9  1  0  0  0  0 
  6  8  1  0  0  0  0 
  9 10  1  0  0  0  0 
  9 11  2  0  0  0  0 
M  END
> <Name>
1-(4-hydroxy-2-methylphenyl)ethanone

> <Source>
NIST2DMolFile

> <Tox>
3.190

> <CAS>
875-59-2

$$$$

  CDK

 11 12  0  0  0  0  0  0  0  0999 V2000
    1.1618    0.6781    0.0002 N   0  0  0  0  0  0  0  0  0  0  0  0
   -0.2001    0.4768    0.0003 C   0  0  0  0  0  0  0  0  0  0  0  0
    1.8169   -0.5241   -0.0004 C   0  0  0  0  0  0  0  0  0  0  0  0
    1.8073    1.9750   -0.0018 C   0  0  0  0  0  0  0  0  0  0  0  0
   -0.4116   -0.9037   -0.0004 C   0  0  0  0  0  0  0  0  0  0  0  0
   -1.2504    1.4017    0.0008 C   0  0  0  0  0  0  0  0  0  0  0  0
    0.8699   -1.5223   -0.0007 C   0  0  0  0  0  0  0  0  0  0  0  0
    3.2913   -0.6196    0.0019 C   0  0  0  0  0  0  0  0  0  0  0  0
   -1.7350   -1.3871   -0.0008 C   0  0  0  0  0  0  0  0  0  0  0  0
   -2.5545    0.8989    0.0008 C   0  0  0  0  0  0  0  0  0  0  0  0
   -2.7955   -0.4737    0.0001 C   0  0  0  0  0  0  0  0  0  0  0  0
  1  2  1  0  0  0  0 
  1  3  1  0  0  0  0 
  1  4  1  0  0  0  0 
  2  5  1  0  0  0  0 
  2  6  2  0  0  0  0 
  3  7  2  0  0  0  0 
  3  8  1  0  0  0  0 
  5  7  1  0  0  0  0 
  5  9  2  0  0  0  0 
  6 10  1  0  0  0  0 
  9 11  1  0  0  0  0 
 10 11  2  0  0  0  0 
M  END
> <Name>
1,2-dimethylindole

> <Source>
Chemidplus3DMolFile

> <Tox>
3.840

> <CAS>
875-79-6

$$$$

  CDK

 12 13  0  0  0  0  0  0  0  0999 V2000
   -1.5225    1.0304   -0.0003 N   0  0  0  0  0  0  0  0  0  0  0  0
   -2.4745    0.0985   -0.0002 C   0  0  0  0  0  0  0  0  0  0  0  0
   -0.1857    0.6505    0.0000 C   0  0  0  0  0  0  0  0  0  0  0  0
   -2.1562   -1.2943    0.0002 C   0  0  0  0  0  0  0  0  0  0  0  0
   -3.8994    0.5401    0.0000 C   0  0  0  0  0  0  0  0  0  0  0  0
    0.1826   -0.7120    0.0000 C   0  0  0  0  0  0  0  0  0  0  0  0
    0.8214    1.6548    0.0002 C   0  0  0  0  0  0  0  0  0  0  0  0
   -0.8497   -1.6921    0.0002 C   0  0  0  0  0  0  0  0  0  0  0  0
    1.5552   -1.0600   -0.0003 C   0  0  0  0  0  0  0  0  0  0  0  0
    2.1409    1.2882    0.0002 C   0  0  0  0  0  0  0  0  0  0  0  0
    2.5191   -0.0789   -0.0002 C   0  0  0  0  0  0  0  0  0  0  0  0
    3.9594   -0.4451    0.0000 C   0  0  0  0  0  0  0  0  0  0  0  0
  1  2  2  0  0  0  0 
  1  3  1  0  0  0  0 
  2  4  1  0  0  0  0 
  2  5  1  0  0  0  0 
  6  3  1  0  0  0  0 
  7  3  2  0  0  0  0 
  4  8  2  0  0  0  0 
  8  6  1  0  0  0  0 
  6  9  2  0  0  0  0 
 10  7  1  0  0  0  0 
  9 11  1  0  0  0  0 
 11 10  2  0  0  0  0 
 11 12  1  0  0  0  0 
M  END
> <Name>
Quinoline, 2,6-dimethyl-

> <Source>
DougDB3DMolFile

> <Tox>
3.680

> <CAS>
877-43-0

$$$$

  CDK

 12 12  0  0  0  0  0  0  0  0999 V2000
    1.0058    0.0000    0.0000 C   0  0  0  0  0  0  0  0  0  0  0  0
    1.0058    1.0058    0.0000 C   0  0  0  0  0  0  0  0  0  0  0  0
    1.0058    2.0116    0.0000 C   0  0  0  0  0  0  0  0  0  0  0  0
    0.0000    1.0058    0.0000 C   0  0  0  0  0  0  0  0  0  0  0  0
    2.0116    1.0058    0.0000 C   0  0  0  0  0  0  0  0  0  0  0  0
    2.5145    1.8607    0.0000 C   0  0  0  0  0  0  0  0  0  0  0  0
    2.5145    0.1509    0.0000 C   0  0  0  0  0  0  0  0  0  0  0  0
    3.5203    1.8607    0.0000 C   0  0  0  0  0  0  0  0  0  0  0  0
    3.5203    0.1509    0.0000 C   0  0  0  0  0  0  0  0  0  0  0  0
    4.0232    1.0058    0.0000 C   0  0  0  0  0  0  0  0  0  0  0  0
    5.0290    1.0058    0.0000 C   0  0  0  0  0  0  0  0  0  0  0  0
    5.5319    1.8607    0.0000 O   0  0  0  0  0  0  0  0  0  0  0  0
  1  2  1  0  0  0  0 
  2  3  1  0  0  0  0 
  2  4  1  0  0  0  0 
  2  5  1  0  0  0  0 
  6  5  2  0  0  0  0 
  5  7  1  0  0  0  0 
  8  6  1  0  0  0  0 
  7  9  2  0  0  0  0 
 10  8  2  0  0  0  0 
  9 10  1  0  0  0  0 
 10 11  1  0  0  0  0 
 11 12  1  0  0  0  0 
M  END
> <Name>
Benzenemethanol, 4-(1,1-dimethylethyl)-

> <Source>
NIST2DMolFile

> <Tox>
3.480

> <CAS>
877-65-6

$$$$

  CDK

 13 13  0  0  0  0  0  0  0  0999 V2000
    0.6642   -2.3038    0.0000 N   0  0  0  0  0  0  0  0  0  0  0  0
    0.0000   -3.4586    0.0000 O   0  0  0  0  0  0  0  0  0  0  0  0
    0.0000   -1.1549    0.0000 O   0  0  0  0  0  0  0  0  0  0  0  0
    1.9926   -2.3038    0.0000 C   0  0  0  0  0  0  0  0  0  0  0  0
    2.6568   -1.1549    0.0000 C   0  0  0  0  0  0  0  0  0  0  0  0
    2.6568   -3.4586    0.0000 C   0  0  0  0  0  0  0  0  0  0  0  0
    3.9912   -1.1549    0.0000 C   0  0  0  0  0  0  0  0  0  0  0  0
    3.9912   -3.4586    0.0000 C   0  0  0  0  0  0  0  0  0  0  0  0
    1.9926   -4.6075    0.0000 Cl  0  0  0  0  0  0  0  0  0  0  0  0
    4.6554   -0.0000    0.0000 Cl  0  0  0  0  0  0  0  0  0  0  0  0
    4.6554   -2.3038    0.0000 C   0  0  0  0  0  0  0  0  0  0  0  0
    4.6554   -4.6075    0.0000 Cl  0  0  0  0  0  0  0  0  0  0  0  0
    5.9838   -2.3038    0.0000 Cl  0  0  0  0  0  0  0  0  0  0  0  0
  1  2  2  0  0  0  0 
  1  3  1  0  0  0  0 
  1  4  1  0  0  0  0 
  4  5  2  0  0  0  0 
  4  6  1  0  0  0  0 
  5  7  1  0  0  0  0 
  8  6  2  0  0  0  0 
  6  9  1  0  0  0  0 
  7 10  1  0  0  0  0 
  7 11  2  0  0  0  0 
 11  8  1  0  0  0  0 
  8 12  1  0  0  0  0 
 11 13  1  0  0  0  0 
M  CHG  1   1   1
M  CHG  1   3  -1
M  END
> <Name>
Benzene, 1,2,3,4-tetrachloro-5-nitro-

> <Source>
DSSTox2DMolFile

> <Tox>
4.780

> <CAS>
879-39-0

$$$$

  CDK

 14 14  0  0  0  0  0  0  0  0999 V2000
    0.8497    2.4990    0.0000 C   0  0  0  0  0  0  0  0  0  0  0  0
    0.0000    2.9988    0.0000 F   0  0  0  0  0  0  0  0  0  0  0  0
    1.7493    2.9988    0.0000 C   0  0  0  0  0  0  0  0  0  0  0  0
    0.8497    1.4994    0.0000 C   0  0  0  0  0  0  0  0  0  0  0  0
    2.5990    2.4990    0.0000 C   0  0  0  0  0  0  0  0  0  0  0  0
    1.7493    3.9984    0.0000 F   0  0  0  0  0  0  0  0  0  0  0  0
    1.7493    0.9996    0.0000 C   0  0  0  0  0  0  0  0  0  0  0  0
    0.0000    0.9996    0.0000 F   0  0  0  0  0  0  0  0  0  0  0  0
    2.5990    1.4994    0.0000 C   0  0  0  0  0  0  0  0  0  0  0  0
    3.4486    2.9988    0.0000 N   0  0  0  0  0  0  0  0  0  0  0  0
    1.7493    0.0000    0.0000 F   0  0  0  0  0  0  0  0  0  0  0  0
    3.4486    0.9996    0.0000 F   0  0  0  0  0  0  0  0  0  0  0  0
    4.3483    2.4990    0.0000 O   0  0  0  0  0  0  0  0  0  0  0  0
    3.4486    3.9984    0.0000 O   0  0  0  0  0  0  0  0  0  0  0  0
  1  2  1  0  0  0  0 
  1  3  2  0  0  0  0 
  4  1  1  0  0  0  0 
  3  5  1  0  0  0  0 
  3  6  1  0  0  0  0 
  7  4  2  0  0  0  0 
  4  8  1  0  0  0  0 
  5  9  2  0  0  0  0 
  5 10  1  0  0  0  0 
  9  7  1  0  0  0  0 
  7 11  1  0  0  0  0 
  9 12  1  0  0  0  0 
 10 13  2  0  0  0  0 
 10 14  2  0  0  0  0 
M  END
> <Name>
Pentafluoronitrobenzene

> <Source>
NIST2DMolFile

> <Tox>
5.430

> <CAS>
880-78-4

$$$$

  CDK

 14 15  0  0  0  0  0  0  0  0999 V2000
    4.6191   -0.0000    0.0000 O   0  0  0  0  0  0  0  0  0  0  0  0
    3.4672   -0.6566    0.0000 N   0  0  0  0  0  0  0  0  0  0  0  0
    2.3096   -0.0000    0.0000 O   0  0  0  0  0  0  0  0  0  0  0  0
    3.4672   -1.9928    0.0000 C   0  0  0  0  0  0  0  0  0  0  0  0
    2.2923   -2.6667    0.0000 C   0  0  0  0  0  0  0  0  0  0  0  0
    4.6018   -2.6667    0.0000 C   0  0  0  0  0  0  0  0  0  0  0  0
    2.2923   -3.9971    0.0000 C   0  0  0  0  0  0  0  0  0  0  0  0
    1.1577   -1.9928    0.0000 C   0  0  0  0  0  0  0  0  0  0  0  0
    4.6018   -3.9971    0.0000 C   0  0  0  0  0  0  0  0  0  0  0  0
    5.7595   -2.0043    0.0000 C   0  0  0  0  0  0  0  0  0  0  0  0
    1.1404   -4.6537    0.0000 C   0  0  0  0  0  0  0  0  0  0  0  0
    3.4499   -4.6537    0.0000 C   0  0  0  0  0  0  0  0  0  0  0  0
    0.0000   -2.6494    0.0000 C   0  0  0  0  0  0  0  0  0  0  0  0
    0.0000   -3.9798    0.0000 C   0  0  0  0  0  0  0  0  0  0  0  0
  1  2  1  0  0  0  0 
  2  3  2  0  0  0  0 
  2  4  1  0  0  0  0 
  4  5  2  0  0  0  0 
  4  6  1  0  0  0  0 
  5  7  1  0  0  0  0 
  5  8  1  0  0  0  0 
  9  6  2  0  0  0  0 
  6 10  1  0  0  0  0 
  7 11  1  0  0  0  0 
  7 12  2  0  0  0  0 
 13  8  2  0  0  0  0 
 12  9  1  0  0  0  0 
 11 14  2  0  0  0  0 
 14 13  1  0  0  0  0 
M  CHG  1   1  -1
M  CHG  1   2   1
M  END
> <Name>
Naphthalene, 2-methyl-1-nitro-

> <Source>
DSSTox2DMolFile

> <Tox>
4.040

> <CAS>
881-03-8

$$$$

  CDK

  6  5  0  0  0  0  0  0  0  0999 V2000
    1.3278   -2.3029    0.0000 C   0  0  0  0  0  0  0  0  0  0  0  0
    2.0000   -1.1514    0.0000 C   0  0  0  0  0  0  0  0  0  0  0  0
    0.0000   -2.3029    0.0000 O   0  0  0  0  0  0  0  0  0  0  0  0
    1.3278   -0.0000    0.0000 C   0  0  0  0  0  0  0  0  0  0  0  0
    3.3278   -1.1514    0.0000 C   0  0  0  0  0  0  0  0  0  0  0  0
    0.0000   -0.0000    0.0000 C   0  0  0  0  0  0  0  0  0  0  0  0
  1  2  1  0  0  0  0 
  1  3  2  0  0  0  0 
  2  4  1  0  0  0  0 
  2  5  2  0  0  0  0 
  4  6  1  0  0  0  0 
M  END
> <Name>
Butanal, 2-methylene- (9CI)

> <Source>
DSSTox2DMolFile

> <Tox>
3.910

> <CAS>
922-63-4

$$$$

  CDK

  6  5  0  0  0  0  0  0  0  0999 V2000
    0.0000    0.0000    0.0000 C   0  0  0  0  0  0  0  0  0  0  0  0
   -1.1800    0.0000    0.0000 C   0  0  0  0  0  0  0  0  0  0  0  0
   -2.6200    0.0000    0.0000 C   0  0  0  0  0  0  0  0  0  0  0  0
   -3.2400   -1.0400    0.0000 O   0  0  0  0  0  0  0  0  0  0  0  0
   -3.1800    1.2000    0.0000 O   0  0  0  0  0  0  0  0  0  0  0  0
   -4.6000    1.1400   -0.0200 C   0  0  0  0  0  0  0  0  0  0  0  0
  1  2  3  0  0  0  0 
  2  3  1  0  0  0  0 
  3  4  2  0  0  0  0 
  3  5  1  0  0  0  0 
  5  6  1  0  0  0  0 
M  END
> <Name>
methyl prop-2-ynoate

> <Source>
NIH3DMolFile

> <Tox>
4.770

> <CAS>
922-67-8

$$$$

  CDK

  7  6  0  0  0  0  0  0  0  0999 V2000
    0.0000   -1.3315    0.0000 C   0  0  0  0  0  0  0  0  0  0  0  0
    1.1518   -1.9950    0.0000 C   0  0  0  0  0  0  0  0  0  0  0  0
    2.3037   -1.3315    0.0000 C   0  0  0  0  0  0  0  0  0  0  0  0
    2.3037   -0.0000    0.0000 O   0  0  0  0  0  0  0  0  0  0  0  0
    3.4555   -1.9950    0.0000 C   0  0  0  0  0  0  0  0  0  0  0  0
    4.6073   -1.3315    0.0000 C   0  0  0  0  0  0  0  0  0  0  0  0
    4.6073   -0.0000    0.0000 C   0  0  0  0  0  0  0  0  0  0  0  0
  1  2  2  0  0  0  0 
  2  3  1  0  0  0  0 
  3  4  1  0  0  0  0 
  3  5  1  0  0  0  0 
  5  6  1  0  0  0  0 
  6  7  2  0  0  0  0 
M  END
> <Name>
Hexa-1,5-dien-3-ol

> <Source>
DSSTox2DMolFile

> <Tox>
3.250

> <CAS>
924-41-4

$$$$

  CDK

  8  7  0  0  0  0  0  0  0  0999 V2000
    0.7276    0.6301    0.0000 O   0  0  0  0  0  0  0  0  0  0  0  0
    0.5717   -0.1800    0.0000 C   0  0  0  0  0  0  0  0  0  0  0  0
    1.1953   -0.7201    0.0000 O   0  0  0  0  0  0  0  0  0  0  0  0
   -0.2079   -0.4501    0.0000 C   0  0  0  0  0  0  0  0  0  0  0  0
    1.9749   -0.4501    0.0000 C   0  0  0  0  0  0  0  0  0  0  0  0
   -0.8315    0.0900    0.0000 C   0  0  0  0  0  0  0  0  0  0  0  0
   -0.6756    0.9001    0.0000 C   0  0  0  0  0  0  0  0  0  0  0  0
   -1.6111   -0.1800    0.0000 C   0  0  0  0  0  0  0  0  0  0  0  0
  1  2  2  0  0  0  0 
  2  3  1  0  0  0  0 
  2  4  1  0  0  0  0 
  3  5  1  0  0  0  0 
  4  6  2  0  0  0  0 
  6  7  1  0  0  0  0 
  6  8  1  0  0  0  0 
M  END
> <Name>
methyl 3-methylbut-2-enoate

> <Source>
Smiles

> <Tox>
1.940

> <CAS>
924-50-5

$$$$

  CDK

  8  7  0  0  0  0  0  0  0  0999 V2000
    0.0000    0.0000    0.0000 C   0  0  0  0  0  0  0  0  0  0  0  0
    0.4800    0.6000    1.3200 C   0  0  0  0  0  0  0  0  0  0  0  0
    1.2200    1.9400    1.1400 C   0  0  0  0  0  0  0  0  0  0  0  0
    2.6200    1.7000    1.0800 O   0  0  0  0  0  0  0  0  0  0  0  0
    3.2000    1.7600    2.2600 C   0  0  0  0  0  0  0  0  0  0  0  0
    2.5800    1.7600    3.3200 O   0  0  0  0  0  0  0  0  0  0  0  0
    4.6600    1.7800    2.2600 C   0  0  0  0  0  0  0  0  0  0  0  0
    5.3400    1.8400    3.4200 C   0  0  0  0  0  0  0  0  0  0  0  0
  1  2  1  0  0  0  0 
  2  3  1  0  0  0  0 
  3  4  1  0  0  0  0 
  4  5  1  0  0  0  0 
  5  6  2  0  0  0  0 
  5  7  1  0  0  0  0 
  7  8  2  0  0  0  0 
M  END
> <Name>
propyl prop-2-enoate

> <Source>
NIH3DMolFile

> <Tox>
3.530

> <CAS>
925-60-0

$$$$

  CDK

  7  6  0  0  0  0  0  0  0  0999 V2000
    2.5781   -1.0785    0.1117 S   0  0  0  0  0  0  0  0  0  0  0  0
    1.3262    0.0257    0.0034 C   0  0  0  0  0  0  0  0  0  0  0  0
    0.1546   -0.2732   -0.6619 N   0  0  0  0  0  0  0  0  0  0  0  0
    1.4232    1.2646    0.5744 N   0  0  0  0  0  0  0  0  0  0  0  0
   -0.9835    0.5901   -0.8163 C   0  0  0  0  0  0  0  0  0  0  0  0
   -1.9815    0.4448    0.3262 C   0  0  0  0  0  0  0  0  0  0  0  0
   -2.5171   -0.9735    0.4625 C   0  0  0  0  0  0  0  0  0  0  0  0
  1  2  2  0  0  0  0 
  3  2  1  0  0  0  0 
  4  2  1  0  0  0  0 
  3  5  1  0  0  0  0 
  6  5  1  0  0  0  0 
  6  7  1  0  0  0  0 
M  END
> <Name>
propylthiourea

> <Source>
Chemidplus3DMolFile

> <Tox>
2.310

> <CAS>
927-67-3

$$$$

  CDK

  6  5  0  0  0  0  0  0  0  0999 V2000
    0.0000    0.0000    0.0000 O   0  0  0  0  0  0  0  0  0  0  0  0
    0.8677    0.4594    0.0000 C   0  0  0  0  0  0  0  0  0  0  0  0
    1.7355    0.0000    0.0000 C   0  0  0  0  0  0  0  0  0  0  0  0
    2.6543    0.4594    0.0000 C   0  0  0  0  0  0  0  0  0  0  0  0
    3.5220    0.0000    0.0000 C   0  0  0  0  0  0  0  0  0  0  0  0
    4.4408    0.4594    0.0000 Cl  0  0  0  0  0  0  0  0  0  0  0  0
  1  2  1  0  0  0  0 
  2  3  1  0  0  0  0 
  3  4  1  0  0  0  0 
  4  5  1  0  0  0  0 
  5  6  1  0  0  0  0 
M  END
> <Name>
1-Butanol, 4-chloro-

> <Source>
NIST2DMolFile

> <Tox>
2.241

> <CAS>
928-51-8

$$$$

  CDK

  7  6  0  0  0  0  0  0  0  0999 V2000
    0.0000    0.0000    0.0000 O   0  0  0  0  0  0  0  0  0  0  0  0
    0.8668    0.4589    0.0000 C   0  0  0  0  0  0  0  0  0  0  0  0
    1.7335    0.0000    0.0000 C   0  0  0  0  0  0  0  0  0  0  0  0
    2.6513    0.4589    0.0000 C   0  0  0  0  0  0  0  0  0  0  0  0
    3.5181    0.0000    0.0000 C   0  0  0  0  0  0  0  0  0  0  0  0
    4.4358    0.4589    0.0000 C   0  0  0  0  0  0  0  0  0  0  0  0
    5.3026    0.9687    0.0000 C   0  0  0  0  0  0  0  0  0  0  0  0
  1  2  1  0  0  0  0 
  2  3  1  0  0  0  0 
  3  4  1  0  0  0  0 
  4  5  1  0  0  0  0 
  5  6  1  0  0  0  0 
  6  7  3  0  0  0  0 
M  END
> <Name>
5-Hexyn-1-ol

> <Source>
NIST2DMolFile

> <Tox>
1.705

> <CAS>
928-90-5

$$$$

  CDK

  7  6  0  0  0  0  0  0  0  0999 V2000
    3.4468    0.5495    0.0000 C   0  0  0  0  0  0  0  0  0  0  0  0
    2.5976    0.0000    0.0000 C   0  0  0  0  0  0  0  0  0  0  0  0
    4.3459    0.0500    0.0000 C   0  0  0  0  0  0  0  0  0  0  0  0
    1.7484    0.4995    0.0000 C   0  0  0  0  0  0  0  0  0  0  0  0
    5.1951    0.4995    0.0000 C   0  0  0  0  0  0  0  0  0  0  0  0
    0.8492    0.0000    0.0000 C   0  0  0  0  0  0  0  0  0  0  0  0
    0.0000    0.4995    0.0000 O   0  0  0  0  0  0  0  0  0  0  0  0
  1  2  1  0  0  0  0 
  1  3  2  0  0  0  0 
  2  4  1  0  0  0  0 
  3  5  1  0  0  0  0 
  4  6  1  0  0  0  0 
  6  7  1  0  0  0  0 
M  END
> <Name>
4-Hexen-1-ol, (4E)-

> <Source>
NIST2DMolFile

> <Tox>
2.246

> <CAS>
928-92-7

$$$$

  CDK

  7  6  0  0  0  0  0  0  0  0999 V2000
    2.4694   -0.4317    0.1507 C   0  0  0  0  0  0  0  0  0  0  0  0
    1.1423    0.0299   -0.3647 C   0  0  0  0  0  0  0  0  0  0  0  0
    3.4517    0.5700    0.1205 O   0  0  0  0  0  0  0  0  0  0  0  0
    0.0020   -0.5636   -0.0112 C   0  0  0  0  0  0  0  0  0  0  0  0
   -1.3221   -0.1567   -0.5523 C   0  0  0  0  0  0  0  0  0  0  0  0
   -2.3484   -0.0017    0.5611 C   0  0  0  0  0  0  0  0  0  0  0  0
   -3.7040    0.3797    0.0108 C   0  0  0  0  0  0  0  0  0  0  0  0
  1  2  1  0  0  0  0 
  1  3  1  0  0  0  0 
  2  4  2  0  0  0  0 
  4  5  1  0  0  0  0 
  5  6  1  0  0  0  0 
  6  7  1  0  0  0  0 
M  END
> <Name>
2-Hexen-1-ol, (2E)-

> <Source>
DougDB3DMolFile

> <Tox>
2.528

> <CAS>
928-95-0

$$$$

  CDK

  7  6  0  0  0  0  0  0  0  0999 V2000
    0.0000   -1.1552    0.0000 C   0  0  0  0  0  0  0  0  0  0  0  0
    1.3288   -1.1552    0.0000 C   0  0  0  0  0  0  0  0  0  0  0  0
    1.9932   -2.3045    0.0000 C   0  0  0  0  0  0  0  0  0  0  0  0
    3.3280   -2.3045    0.0000 C   0  0  0  0  0  0  0  0  0  0  0  0
    3.9924   -1.1552    0.0000 C   0  0  0  0  0  0  0  0  0  0  0  0
    5.3212   -1.1552    0.0000 C   0  0  0  0  0  0  0  0  0  0  0  0
    5.9856   -0.0000    0.0000 O   0  0  0  0  0  0  0  0  0  0  0  0
  1  2  1  0  0  0  0 
  2  3  1  0  0  0  0 
  3  4  2  0  0  0  0 
  4  5  1  0  0  0  0 
  5  6  1  0  0  0  0 
  6  7  1  0  0  0  0 
M  END
> <Name>
3-Hexen-1-ol, (3Z)-

> <Source>
DSSTox2DMolFile

> <Tox>
2.191

> <CAS>
928-96-1

$$$$

  CDK

  6  6  0  0  0  0  0  0  0  0999 V2000
    0.0000    0.8089    0.0000 O   0  0  0  0  0  0  0  0  0  0  0  0
    1.0111    0.8089    0.0000 C   0  0  0  0  0  0  0  0  0  0  0  0
    1.5672    0.0000    0.0000 C   0  0  0  0  0  0  0  0  0  0  0  0
    1.5672    1.6178    0.0000 C   0  0  0  0  0  0  0  0  0  0  0  0
    2.5277    0.3033    0.0000 C   0  0  0  0  0  0  0  0  0  0  0  0
    2.5277    1.3144    0.0000 C   0  0  0  0  0  0  0  0  0  0  0  0
  1  2  2  0  0  0  0 
  2  3  1  0  0  0  0 
  4  2  1  0  0  0  0 
  3  5  1  0  0  0  0 
  6  4  2  0  0  0  0 
  5  6  1  0  0  0  0 
M  END
> <Name>
cyclopent-2-en-1-one

> <Source>
NIST2DMolFile

> <Tox>
3.640

> <CAS>
930-30-3

$$$$

  CDK

  9  9  0  0  0  0  0  0  0  0999 V2000
    1.6771   -0.0000    0.0000 C   0  0  0  0  0  0  0  0  0  0  0  0
    1.2649   -1.2649    0.0000 N   0  0  0  0  0  0  0  0  0  0  0  0
    2.0449   -2.3399    0.0000 C   0  0  0  0  0  0  0  0  0  0  0  0
    0.0000   -1.6731    0.0000 C   0  0  0  0  0  0  0  0  0  0  0  0
    3.3745   -2.3399    0.0000 C   0  0  0  0  0  0  0  0  0  0  0  0
    1.2649   -3.4149    0.0000 C   0  0  0  0  0  0  0  0  0  0  0  0
    0.0000   -3.0067    0.0000 C   0  0  0  0  0  0  0  0  0  0  0  0
    4.0413   -3.4917    0.0000 O   0  0  0  0  0  0  0  0  0  0  0  0
    4.0413   -1.1881    0.0000 C   0  0  0  0  0  0  0  0  0  0  0  0
  1  2  1  0  0  0  0 
  2  3  1  0  0  0  0 
  2  4  1  0  0  0  0 
  3  5  1  0  0  0  0 
  3  6  2  0  0  0  0 
  7  4  2  0  0  0  0 
  5  8  2  0  0  0  0 
  5  9  1  0  0  0  0 
  6  7  1  0  0  0  0 
M  END
> <Name>
Ethanone, 1-(1-methyl-1H-pyrrol-2-yl)-

> <Source>
DSSTox2DMolFile

> <Tox>
2.310

> <CAS>
932-16-1

$$$$

  CDK

  9  9  0  0  0  0  0  0  0  0999 V2000
    2.5065    1.5858    0.0000 C   0  0  0  0  0  0  0  0  0  0  0  0
    2.5065    2.5577    0.0000 C   0  0  0  0  0  0  0  0  0  0  0  0
    1.5858    1.2788    0.0000 C   0  0  0  0  0  0  0  0  0  0  0  0
    3.3761    1.0742    0.0000 C   0  0  0  0  0  0  0  0  0  0  0  0
    1.6369    2.8646    0.0000 C   0  0  0  0  0  0  0  0  0  0  0  0
    1.0231    2.0973    0.0000 N   0  0  0  0  0  0  0  0  0  0  0  0
    3.3761    0.0000    0.0000 C   0  0  0  0  0  0  0  0  0  0  0  0
    4.2969    1.5858    0.0000 O   0  0  0  0  0  0  0  0  0  0  0  0
    0.0000    2.0973    0.0000 C   0  0  0  0  0  0  0  0  0  0  0  0
  1  2  1  0  0  0  0 
  3  1  2  0  0  0  0 
  1  4  1  0  0  0  0 
  2  5  2  0  0  0  0 
  6  3  1  0  0  0  0 
  4  7  1  0  0  0  0 
  4  8  2  0  0  0  0 
  5  6  1  0  0  0  0 
  6  9  1  0  0  0  0 
M  END
> <Name>
Ketone,methyl 1-methylpyrrol-3-yl (7CI,8CI)

> <Source>
NIST2DMolFile

> <Tox>
2.000

> <CAS>
932-62-7

$$$$

  CDK

 11 11  0  0  0  0  0  0  0  0999 V2000
    1.3317   -0.0000    0.0000 Cl  0  0  0  0  0  0  0  0  0  0  0  0
    1.9952   -1.1519    0.0000 C   0  0  0  0  0  0  0  0  0  0  0  0
    3.3268   -1.1519    0.0000 C   0  0  0  0  0  0  0  0  0  0  0  0
    1.3317   -2.3039    0.0000 C   0  0  0  0  0  0  0  0  0  0  0  0
    3.9904   -0.0000    0.0000 Cl  0  0  0  0  0  0  0  0  0  0  0  0
    3.9904   -2.3039    0.0000 C   0  0  0  0  0  0  0  0  0  0  0  0
    1.9952   -3.4558    0.0000 C   0  0  0  0  0  0  0  0  0  0  0  0
    0.0000   -2.3039    0.0000 O   0  0  0  0  0  0  0  0  0  0  0  0
    3.3268   -3.4558    0.0000 C   0  0  0  0  0  0  0  0  0  0  0  0
    1.3317   -4.6078    0.0000 Cl  0  0  0  0  0  0  0  0  0  0  0  0
    3.9904   -4.6078    0.0000 Cl  0  0  0  0  0  0  0  0  0  0  0  0
  1  2  1  0  0  0  0 
  2  3  2  0  0  0  0 
  2  4  1  0  0  0  0 
  3  5  1  0  0  0  0 
  3  6  1  0  0  0  0 
  7  4  2  0  0  0  0 
  4  8  1  0  0  0  0 
  6  9  2  0  0  0  0 
  9  7  1  0  0  0  0 
  7 10  1  0  0  0  0 
  9 11  1  0  0  0  0 
M  END
> <Name>
Phenol, 2,3,5,6-tetrachloro-

> <Source>
DSSTox2DMolFile

> <Tox>
5.220

> <CAS>
935-95-5

$$$$

  CDK

 11 11  0  0  0  0  0  0  0  0999 V2000
   -0.5225    2.2443   -0.2306 O   0  0  0  0  0  0  0  0  0  0  0  0
   -0.9537    0.9572   -0.1095 C   0  0  0  0  0  0  0  0  0  0  0  0
   -0.0478   -0.0875    0.0727 C   0  0  0  0  0  0  0  0  0  0  0  0
   -2.3218    0.6916   -0.1691 C   0  0  0  0  0  0  0  0  0  0  0  0
   -0.5098   -1.3980    0.1952 C   0  0  0  0  0  0  0  0  0  0  0  0
    1.3845    0.1675    0.1379 C   0  0  0  0  0  0  0  0  0  0  0  0
   -2.7839   -0.6188   -0.0465 C   0  0  0  0  0  0  0  0  0  0  0  0
   -1.8779   -1.6636    0.1356 C   0  0  0  0  0  0  0  0  0  0  0  0
    1.8110    1.2419    0.5968 O   0  0  0  0  0  0  0  0  0  0  0  0
    2.2255   -0.8503   -0.3164 N   0  0  0  0  0  0  0  0  0  0  0  0
    3.5962   -0.6843   -0.2661 N   0  0  0  0  0  0  0  0  0  0  0  0
  1  2  1  0  0  0  0 
  3  2  1  0  0  0  0 
  2  4  2  0  0  0  0 
  3  5  2  0  0  0  0 
  3  6  1  0  0  0  0 
  4  7  1  0  0  0  0 
  5  8  1  0  0  0  0 
  9  6  2  0  0  0  0 
 10  6  1  0  0  0  0 
  8  7  2  0  0  0  0 
 10 11  1  0  0  0  0 
M  END
> <Name>
2-hydroxybenzohydrazide

> <Source>
Chemidplus3DMolFile

> <Tox>
3.180

> <CAS>
936-02-7

$$$$

  CDK

 11 11  0  0  0  0  0  0  0  0999 V2000
    1.4489    0.8493    0.0000 C   0  0  0  0  0  0  0  0  0  0  0  0
    1.9985    1.7486    0.0000 C   0  0  0  0  0  0  0  0  0  0  0  0
    0.4996    0.8493    0.0000 N   0  0  0  0  0  0  0  0  0  0  0  0
    1.9485    0.0000    0.0000 O   0  0  0  0  0  0  0  0  0  0  0  0
    2.9977    1.7486    0.0000 C   0  0  0  0  0  0  0  0  0  0  0  0
    0.0000    0.0000    0.0000 N   0  0  0  0  0  0  0  0  0  0  0  0
    3.4973    2.5980    0.0000 C   0  0  0  0  0  0  0  0  0  0  0  0
    3.4973    0.8493    0.0000 C   0  0  0  0  0  0  0  0  0  0  0  0
    4.4965    2.5980    0.0000 C   0  0  0  0  0  0  0  0  0  0  0  0
    4.4965    0.8493    0.0000 C   0  0  0  0  0  0  0  0  0  0  0  0
    4.9961    1.7486    0.0000 C   0  0  0  0  0  0  0  0  0  0  0  0
  1  2  1  0  0  0  0 
  1  3  1  0  0  0  0 
  1  4  2  0  0  0  0 
  2  5  1  0  0  0  0 
  3  6  1  0  0  0  0 
  7  5  2  0  0  0  0 
  5  8  1  0  0  0  0 
  9  7  1  0  0  0  0 
  8 10  2  0  0  0  0 
 11  9  2  0  0  0  0 
 10 11  1  0  0  0  0 
M  END
> <Name>
Acetic acid, phenyl-, hydrazide (8CI)

> <Source>
NIST2DMolFile

> <Tox>
2.520

> <CAS>
937-39-3

$$$$

  CDK

 12 13  0  0  0  0  0  0  0  0999 V2000
    6.6536   -1.1511    0.0000 N   0  0  0  0  0  0  0  0  0  0  0  0
    5.9883   -2.3022    0.0000 C   0  0  0  0  0  0  0  0  0  0  0  0
    5.9883   -0.0000    0.0000 C   0  0  0  0  0  0  0  0  0  0  0  0
    4.6575   -2.3022    0.0000 C   0  0  0  0  0  0  0  0  0  0  0  0
    4.6575   -0.0000    0.0000 C   0  0  0  0  0  0  0  0  0  0  0  0
    3.9922   -1.1511    0.0000 C   0  0  0  0  0  0  0  0  0  0  0  0
    2.6615   -1.1511    0.0000 C   0  0  0  0  0  0  0  0  0  0  0  0
    1.9961   -2.3022    0.0000 C   0  0  0  0  0  0  0  0  0  0  0  0
    1.9961   -0.0000    0.0000 C   0  0  0  0  0  0  0  0  0  0  0  0
    0.6654   -2.3022    0.0000 C   0  0  0  0  0  0  0  0  0  0  0  0
    0.6654   -0.0000    0.0000 C   0  0  0  0  0  0  0  0  0  0  0  0
    0.0000   -1.1511    0.0000 C   0  0  0  0  0  0  0  0  0  0  0  0
  1  2  2  0  0  0  0 
  1  3  1  0  0  0  0 
  2  4  1  0  0  0  0 
  5  3  2  0  0  0  0 
  4  6  2  0  0  0  0 
  6  5  1  0  0  0  0 
  6  7  1  0  0  0  0 
  7  8  2  0  0  0  0 
  7  9  1  0  0  0  0 
  8 10  1  0  0  0  0 
 11  9  2  0  0  0  0 
 10 12  2  0  0  0  0 
 12 11  1  0  0  0  0 
M  END
> <Name>
Pyridine, 4-phenyl-

> <Source>
DSSTox2DMolFile

> <Tox>
3.660

> <CAS>
939-23-1

$$$$

  CDK

 12 12  0  0  0  0  0  0  0  0999 V2000
    3.3824   -0.2150   -0.0522 C   0  0  0  0  0  0  0  0  0  0  0  0
    2.0108    0.1671   -0.0224 C   0  0  0  0  0  0  0  0  0  0  0  0
    4.5000   -0.5223   -0.0757 N   0  0  0  0  0  0  0  0  0  0  0  0
    1.0203   -0.8143   -0.0288 C   0  0  0  0  0  0  0  0  0  0  0  0
    1.6721    1.5252    0.0123 C   0  0  0  0  0  0  0  0  0  0  0  0
   -0.3285   -0.4393   -0.0069 C   0  0  0  0  0  0  0  0  0  0  0  0
    0.3357    1.8919    0.0441 C   0  0  0  0  0  0  0  0  0  0  0  0
   -0.6687    0.9199    0.0350 C   0  0  0  0  0  0  0  0  0  0  0  0
   -1.3732   -1.5218   -0.0335 N   0  0  0  0  0  0  0  0  0  0  0  0
   -2.2563    1.4428    0.0911 Cl  0  0  0  0  0  0  0  0  0  0  0  0
   -2.4217   -1.3208   -0.6075 O   0  0  0  0  0  0  0  0  0  0  0  0
   -1.1297   -2.5777    0.5125 O   0  0  0  0  0  0  0  0  0  0  0  0
  1  2  1  0  0  0  0 
  1  3  3  0  0  0  0 
  2  4  1  0  0  0  0 
  2  5  2  0  0  0  0 
  4  6  2  0  0  0  0 
  7  5  1  0  0  0  0 
  6  8  1  0  0  0  0 
  6  9  1  0  0  0  0 
  8  7  2  0  0  0  0 
  8 10  1  0  0  0  0 
  9 11  2  0  0  0  0 
  9 12  1  0  0  0  0 
M  CHG  1   9   1
M  CHG  1  12  -1
M  END
> <Name>
Benzonitrile, 4-chloro-3-nitro-

> <Source>
DougDB3DMolFile

> <Tox>
4.710

> <CAS>
939-80-0

$$$$

  CDK

  8  7  0  0  0  0  0  0  0  0999 V2000
    5.9872   -1.1555    0.0000 C   0  0  0  0  0  0  0  0  0  0  0  0
    4.6581   -1.1555    0.0000 C   0  0  0  0  0  0  0  0  0  0  0  0
    3.9935   -2.3051    0.0000 C   0  0  0  0  0  0  0  0  0  0  0  0
    2.6583   -2.3051    0.0000 O   0  0  0  0  0  0  0  0  0  0  0  0
    1.9938   -1.1555    0.0000 C   0  0  0  0  0  0  0  0  0  0  0  0
    2.6583   -0.0000    0.0000 O   0  0  0  0  0  0  0  0  0  0  0  0
    0.6646   -1.1555    0.0000 C   0  0  0  0  0  0  0  0  0  0  0  0
    0.0000   -2.3051    0.0000 C   0  0  0  0  0  0  0  0  0  0  0  0
  1  2  2  0  0  0  0 
  2  3  1  0  0  0  0 
  3  4  1  0  0  0  0 
  4  5  1  0  0  0  0 
  5  6  2  0  0  0  0 
  5  7  1  0  0  0  0 
  7  8  2  0  0  0  0 
M  END
> <Name>
Acrylic acid, allyl ester (8CI)

> <Source>
DSSTox2DMolFile

> <Tox>
3.680

> <CAS>
999-55-3

$$$$

  CDK

  9  8  0  0  0  0  0  0  0  0999 V2000
    6.9045   -1.9954    0.0000 C   0  0  0  0  0  0  0  0  0  0  0  0
    5.7514   -1.3257    0.0000 C   0  0  0  0  0  0  0  0  0  0  0  0
    4.6053   -1.9954    0.0000 C   0  0  0  0  0  0  0  0  0  0  0  0
    4.6053   -3.3210    0.0000 O   0  0  0  0  0  0  0  0  0  0  0  0
    3.4522   -1.3257    0.0000 O   0  0  0  0  0  0  0  0  0  0  0  0
    2.2992   -1.9954    0.0000 C   0  0  0  0  0  0  0  0  0  0  0  0
    1.1530   -1.3257    0.0000 C   0  0  0  0  0  0  0  0  0  0  0  0
    0.0000   -1.9954    0.0000 O   0  0  0  0  0  0  0  0  0  0  0  0
    1.1530   -0.0000    0.0000 C   0  0  0  0  0  0  0  0  0  0  0  0
  1  2  2  0  0  0  0 
  2  3  1  0  0  0  0 
  3  4  2  0  0  0  0 
  3  5  1  0  0  0  0 
  5  6  1  0  0  0  0 
  6  7  1  0  0  0  0 
  7  8  1  0  0  0  0 
  7  9  1  0  0  0  0 
M  END
> <Name>
2-Propenoic acid, 2-hydroxypropyl ester (9CI)

> <Source>
DSSTox2DMolFile

> <Tox>
3.650

> <CAS>
999-61-1

$$$$

  CDK

  7  6  0  0  0  0  0  0  0  0999 V2000
    4.4010    2.6242    2.0902 C   0  0  0  0  0  0  0  0  0  0  0  0
    3.2287    2.4417    1.9701 C   0  0  0  0  0  0  0  0  0  0  0  0
    5.8160    2.8451    2.2357 C   0  0  0  0  0  0  0  0  0  0  0  0
    1.8153    2.2177    1.8246 C   0  0  0  0  0  0  0  0  0  0  0  0
    6.1449    4.3203    2.3538 C   0  0  0  0  0  0  0  0  0  0  0  0
    1.5517    0.9445    1.0135 C   0  0  0  0  0  0  0  0  0  0  0  0
    0.1534    0.7885    0.9305 O   0  0  0  0  0  0  0  0  0  0  0  0
  1  2  3  0  0  0  0 
  1  3  1  0  0  0  0 
  2  4  1  0  0  0  0 
  3  5  1  0  0  0  0 
  4  6  1  0  0  0  0 
  6  7  1  0  0  0  0 
M  END
> <Name>
3-Hexyn-1-ol

> <Source>
NIST3DMolFile

> <Tox>
1.976

> <CAS>
1002-28-4

$$$$

  CDK

  7  7  0  0  0  0  0  0  0  0999 V2000
    3.3003    0.6501    0.0000 O   0  0  0  0  0  0  0  0  0  0  0  0
    2.5502    1.3501    0.0000 C   0  0  0  0  0  0  0  0  0  0  0  0
    1.6001    0.8501    0.0000 C   0  0  0  0  0  0  0  0  0  0  0  0
    1.3501    0.0000    0.0000 C   0  0  0  0  0  0  0  0  0  0  0  0
    0.7501    1.5001    0.0000 N   0  0  0  0  0  0  0  0  0  0  0  0
    0.3000    0.0000    0.0000 C   0  0  0  0  0  0  0  0  0  0  0  0
    0.0000    0.8501    0.0000 C   0  0  0  0  0  0  0  0  0  0  0  0
  1  2  2  0  0  0  0 
  2  3  1  0  0  0  0 
  3  4  2  0  0  0  0 
  5  3  1  0  0  0  0 
  4  6  1  0  0  0  0 
  7  5  1  0  0  0  0 
  6  7  2  0  0  0  0 
M  END
> <Name>
1H-pyrrole-2-carbaldehyde

> <Source>
NIST2DMolFile

> <Tox>
2.520

> <CAS>
1003-29-8

$$$$

  CDK

  7  7  0  0  0  0  0  0  0  0999 V2000
    1.2770    0.0000    0.0000 C   0  0  0  0  0  0  0  0  0  0  0  0
    0.3065    0.0000    0.0000 C   0  0  0  0  0  0  0  0  0  0  0  0
    1.5835    0.9705    0.0000 C   0  0  0  0  0  0  0  0  0  0  0  0
    0.0000    0.9705    0.0000 C   0  0  0  0  0  0  0  0  0  0  0  0
    0.8173    1.5324    0.0000 S   0  0  0  0  0  0  0  0  0  0  0  0
    2.5540    1.2770    0.0000 C   0  0  0  0  0  0  0  0  0  0  0  0
    3.5245    1.6346    0.0000 N   0  0  0  0  0  0  0  0  0  0  0  0
  1  2  1  0  0  0  0 
  3  1  2  0  0  0  0 
  2  4  2  0  0  0  0 
  5  3  1  0  0  0  0 
  3  6  1  0  0  0  0 
  4  5  1  0  0  0  0 
  6  7  3  0  0  0  0 
M  END
> <Name>
thiophene-2-carbonitrile

> <Source>
NIST2DMolFile

> <Tox>
2.240

> <CAS>
1003-31-2

$$$$

  CDK

 11 11  0  0  0  0  0  0  0  0999 V2000
    0.0000    0.0000    0.0000 O   0  0  0  0  0  0  0  0  0  0  0  0
    0.0200   -1.1800   -0.2800 C   0  0  0  0  0  0  0  0  0  0  0  0
   -1.2400   -2.0000   -0.2200 C   0  0  0  0  0  0  0  0  0  0  0  0
    1.3000   -1.8600   -0.7000 C   0  0  0  0  0  0  0  0  0  0  0  0
   -1.0600   -3.2400    0.5800 C   0  0  0  0  0  0  0  0  0  0  0  0
    2.0600   -2.4200    0.4800 C   0  0  0  0  0  0  0  0  0  0  0  0
   -1.5800   -3.3200    1.8800 C   0  0  0  0  0  0  0  0  0  0  0  0
   -0.3400   -4.3200    0.0400 C   0  0  0  0  0  0  0  0  0  0  0  0
   -1.4000   -4.4800    2.6400 C   0  0  0  0  0  0  0  0  0  0  0  0
   -0.1800   -5.5000    0.8000 C   0  0  0  0  0  0  0  0  0  0  0  0
   -0.7000   -5.5800    2.1000 C   0  0  0  0  0  0  0  0  0  0  0  0
  1  2  2  0  0  0  0 
  2  3  1  0  0  0  0 
  2  4  1  0  0  0  0 
  3  5  1  0  0  0  0 
  4  6  1  0  0  0  0 
  5  7  2  0  0  0  0 
  5  8  1  0  0  0  0 
  7  9  1  0  0  0  0 
 10  8  2  0  0  0  0 
  9 11  2  0  0  0  0 
 11 10  1  0  0  0  0 
M  END
> <Name>
1-phenylbutan-2-one

> <Source>
NIH3DMolFile

> <Tox>
2.790

> <CAS>
1007-32-5

$$$$

  CDK

 12 13  0  0  0  0  0  0  0  0999 V2000
    0.0000    3.0019    0.0000 C   0  0  0  0  0  0  0  0  0  0  0  0
    0.8649    3.5107    0.0000 C   0  0  0  0  0  0  0  0  0  0  0  0
    0.0000    1.9843    0.0000 C   0  0  0  0  0  0  0  0  0  0  0  0
    1.7299    3.0019    0.0000 C   0  0  0  0  0  0  0  0  0  0  0  0
    0.8649    1.4755    0.0000 N   0  0  0  0  0  0  0  0  0  0  0  0
    1.7299    1.9843    0.0000 C   0  0  0  0  0  0  0  0  0  0  0  0
    2.5948    1.4755    0.0000 C   0  0  0  0  0  0  0  0  0  0  0  0
    2.5948    0.5088    0.0000 C   0  0  0  0  0  0  0  0  0  0  0  0
    3.4598    1.9843    0.0000 C   0  0  0  0  0  0  0  0  0  0  0  0
    3.4598    0.0000    0.0000 C   0  0  0  0  0  0  0  0  0  0  0  0
    4.3247    1.4755    0.0000 C   0  0  0  0  0  0  0  0  0  0  0  0
    4.3247    0.5088    0.0000 C   0  0  0  0  0  0  0  0  0  0  0  0
  1  2  2  0  0  0  0 
  3  1  1  0  0  0  0 
  2  4  1  0  0  0  0 
  5  3  2  0  0  0  0 
  4  6  2  0  0  0  0 
  6  5  1  0  0  0  0 
  6  7  1  0  0  0  0 
  8  7  2  0  0  0  0 
  7  9  1  0  0  0  0 
 10  8  1  0  0  0  0 
  9 11  2  0  0  0  0 
 12 10  2  0  0  0  0 
 11 12  1  0  0  0  0 
M  END
> <Name>
Pyridine, 2-phenyl-

> <Source>
NIST2DMolFile

> <Tox>
3.270

> <CAS>
1008-89-5

$$$$

  CDK

 12 12  0  0  0  0  0  0  0  0999 V2000
    3.0607    0.9785    2.3276 C   0  0  0  0  0  0  0  0  0  0  0  0
    3.6446    1.5775    3.5907 C   0  0  0  0  0  0  0  0  0  0  0  0
    3.1965    1.8447    1.0863 C   0  0  0  0  0  0  0  0  0  0  0  0
    4.5779    2.3590    3.5814 O   0  0  0  0  0  0  0  0  0  0  0  0
    3.0296    1.1274    4.8774 C   0  0  0  0  0  0  0  0  0  0  0  0
    2.1576    2.9572    1.0471 C   0  0  0  0  0  0  0  0  0  0  0  0
    1.6703    0.8144    4.9421 C   0  0  0  0  0  0  0  0  0  0  0  0
    3.8122    1.0356    6.0302 C   0  0  0  0  0  0  0  0  0  0  0  0
    0.7489    2.4121    0.9595 C   0  0  0  0  0  0  0  0  0  0  0  0
    1.0991    0.4138    6.1433 C   0  0  0  0  0  0  0  0  0  0  0  0
    3.2375    0.6304    7.2303 C   0  0  0  0  0  0  0  0  0  0  0  0
    1.8834    0.3205    7.2891 C   0  0  0  0  0  0  0  0  0  0  0  0
  1  2  1  0  0  0  0 
  1  3  1  0  0  0  0 
  2  4  2  0  0  0  0 
  2  5  1  0  0  0  0 
  3  6  1  0  0  0  0 
  7  5  2  0  0  0  0 
  5  8  1  0  0  0  0 
  6  9  1  0  0  0  0 
 10  7  1  0  0  0  0 
  8 11  2  0  0  0  0 
 12 10  2  0  0  0  0 
 11 12  1  0  0  0  0 
M  END
> <Name>
1-Pentanone, 1-phenyl-

> <Source>
NIST3DMolFile

> <Tox>
3.560

> <CAS>
1009-14-9

$$$$

  CDK

 15 16  0  0  0  0  0  0  0  0999 V2000
    3.0123    3.4642    0.0000 C   0  0  0  0  0  0  0  0  0  0  0  0
    3.5144    4.3177    0.0000 C   0  0  0  0  0  0  0  0  0  0  0  0
    3.5144    2.6107    0.0000 C   0  0  0  0  0  0  0  0  0  0  0  0
    2.0082    3.4642    0.0000 C   0  0  0  0  0  0  0  0  0  0  0  0
    4.5185    4.3177    0.0000 C   0  0  0  0  0  0  0  0  0  0  0  0
    4.5185    2.6107    0.0000 C   0  0  0  0  0  0  0  0  0  0  0  0
    1.5062    2.6107    0.0000 C   0  0  0  0  0  0  0  0  0  0  0  0
    1.5062    4.3177    0.0000 O   0  0  0  0  0  0  0  0  0  0  0  0
    5.0205    3.4642    0.0000 C   0  0  0  0  0  0  0  0  0  0  0  0
    2.0082    1.7070    0.0000 C   0  0  0  0  0  0  0  0  0  0  0  0
    0.5021    2.6107    0.0000 C   0  0  0  0  0  0  0  0  0  0  0  0
    1.5062    0.8535    0.0000 C   0  0  0  0  0  0  0  0  0  0  0  0
    0.0000    1.7070    0.0000 C   0  0  0  0  0  0  0  0  0  0  0  0
    0.5021    0.8535    0.0000 C   0  0  0  0  0  0  0  0  0  0  0  0
    2.0082    0.0000    0.0000 Cl  0  0  0  0  0  0  0  0  0  0  0  0
  1  2  2  0  0  0  0 
  3  1  1  0  0  0  0 
  1  4  1  0  0  0  0 
  2  5  1  0  0  0  0 
  6  3  2  0  0  0  0 
  4  7  1  0  0  0  0 
  4  8  2  0  0  0  0 
  5  9  2  0  0  0  0 
  9  6  1  0  0  0  0 
  7 10  2  0  0  0  0 
 11  7  1  0  0  0  0 
 10 12  1  0  0  0  0 
 13 11  2  0  0  0  0 
 12 14  2  0  0  0  0 
 12 15  1  0  0  0  0 
 14 13  1  0  0  0  0 
M  END
> <Name>
3-Chlorobenzophenone

> <Source>
NIST2DMolFile

> <Tox>
4.550

> <CAS>
1016-78-0

$$$$

  CDK

  5  4  0  0  0  0  0  0  0  0999 V2000
    3.4567   -1.9945    0.0000 C   0  0  0  0  0  0  0  0  0  0  0  0
    2.3056   -1.3308    0.0000 C   0  0  0  0  0  0  0  0  0  0  0  0
    2.3056   -0.0000    0.0000 O   0  0  0  0  0  0  0  0  0  0  0  0
    1.1511   -1.9945    0.0000 N   0  0  0  0  0  0  0  0  0  0  0  0
    0.0000   -1.3308    0.0000 N   0  0  0  0  0  0  0  0  0  0  0  0
  1  2  1  0  0  0  0 
  2  3  2  0  0  0  0 
  2  4  1  0  0  0  0 
  4  5  1  0  0  0  0 
M  END
> <Name>
Acetic acid, hydrazide

> <Source>
DSSTox2DMolFile

> <Tox>
1.620

> <CAS>
1068-57-1

$$$$

  CDK

 15 14  0  0  0  0  0  0  0  0999 V2000
    2.7505    1.9503    0.0000 C   0  0  0  0  0  0  0  0  0  0  0  0
    3.7506    2.0003    0.0000 C   0  0  0  0  0  0  0  0  0  0  0  0
    2.3004    1.0002    0.0000 C   0  0  0  0  0  0  0  0  0  0  0  0
    2.2504    2.8005    0.0000 N   0  0  0  0  0  0  0  0  0  0  0  0
    4.3507    1.2002    0.0000 O   0  0  0  0  0  0  0  0  0  0  0  0
    4.2007    2.9005    0.0000 O   0  0  0  0  0  0  0  0  0  0  0  0
    1.3002    0.9502    0.0000 O   0  0  0  0  0  0  0  0  0  0  0  0
    2.8505    0.1500    0.0000 O   0  0  0  0  0  0  0  0  0  0  0  0
    1.3002    2.6504    0.0000 C   0  0  0  0  0  0  0  0  0  0  0  0
    5.3009    1.5003    0.0000 C   0  0  0  0  0  0  0  0  0  0  0  0
    1.0002    0.0000    0.0000 C   0  0  0  0  0  0  0  0  0  0  0  0
    0.7001    3.4506    0.0000 C   0  0  0  0  0  0  0  0  0  0  0  0
    0.9002    1.7503    0.0000 O   0  0  0  0  0  0  0  0  0  0  0  0
    5.9010    0.7001    0.0000 C   0  0  0  0  0  0  0  0  0  0  0  0
    0.0000    0.0000    0.0000 C   0  0  0  0  0  0  0  0  0  0  0  0
  1  2  1  0  0  0  0 
  1  3  1  0  0  0  0 
  1  4  1  0  0  0  0 
  2  5  1  0  0  0  0 
  2  6  2  0  0  0  0 
  3  7  1  0  0  0  0 
  3  8  2  0  0  0  0 
  4  9  1  0  0  0  0 
  5 10  1  0  0  0  0 
  7 11  1  0  0  0  0 
 12  9  1  0  0  0  0 
  9 13  2  0  0  0  0 
 14 10  1  0  0  0  0 
 15 11  1  0  0  0  0 
M  END
> <Name>
Propanedioic acid, (acetylamino)-, diethyl ester

> <Source>
NIST2DMolFile

> <Tox>
1.796

> <CAS>
1068-90-2

$$$$

  CDK

  8  7  0  0  0  0  0  0  0  0999 V2000
   -0.6327   -3.6242   -0.9306 O   0  0  0  0  0  0  0  0  0  0  0  0
   -0.4882   -2.4332   -0.6815 C   0  0  0  0  0  0  0  0  0  0  0  0
    0.7033   -1.6560   -1.1053 C   0  0  0  0  0  0  0  0  0  0  0  0
    1.8107   -2.3521   -1.8442 C   0  0  0  0  0  0  0  0  0  0  0  0
    0.7335   -0.3616   -0.7625 C   0  0  0  0  0  0  0  0  0  0  0  0
    1.6062   -2.3118   -3.3616 C   0  0  0  0  0  0  0  0  0  0  0  0
    2.7279   -3.0516   -4.0916 C   0  0  0  0  0  0  0  0  0  0  0  0
    2.5130   -3.0441   -5.5968 C   0  0  0  0  0  0  0  0  0  0  0  0
  1  2  2  0  0  0  0 
  3  2  1  0  0  0  0 
  4  3  1  0  0  0  0 
  3  5  2  0  0  0  0 
  6  4  1  0  0  0  0 
  6  7  1  0  0  0  0 
  7  8  1  0  0  0  0 
M  END
> <Name>
2-Methylenehexanal

> <Source>
Chemidplus3DMolFile

> <Tox>
4.070

> <CAS>
1070-66-2

$$$$

  CDK

 12 11  0  0  0  0  0  0  0  0999 V2000
    1.7847    1.9377    0.0000 C   0  0  0  0  0  0  0  0  0  0  0  0
    1.7847    2.9575    0.0000 O   0  0  0  0  0  0  0  0  0  0  0  0
    0.8669    1.4788    0.0000 N   0  0  0  0  0  0  0  0  0  0  0  0
    2.6516    1.4788    0.0000 C   0  0  0  0  0  0  0  0  0  0  0  0
    0.0000    1.9377    0.0000 N   0  0  0  0  0  0  0  0  0  0  0  0
    3.5185    1.9377    0.0000 C   0  0  0  0  0  0  0  0  0  0  0  0
    4.3853    1.4788    0.0000 C   0  0  0  0  0  0  0  0  0  0  0  0
    5.2522    1.9377    0.0000 C   0  0  0  0  0  0  0  0  0  0  0  0
    6.1191    1.4788    0.0000 C   0  0  0  0  0  0  0  0  0  0  0  0
    7.0369    1.9887    0.0000 O   0  0  0  0  0  0  0  0  0  0  0  0
    6.1191    0.5099    0.0000 N   0  0  0  0  0  0  0  0  0  0  0  0
    7.0369    0.0000    0.0000 N   0  0  0  0  0  0  0  0  0  0  0  0
  1  2  2  0  0  0  0 
  1  3  1  0  0  0  0 
  1  4  1  0  0  0  0 
  3  5  1  0  0  0  0 
  4  6  1  0  0  0  0 
  6  7  1  0  0  0  0 
  7  8  1  0  0  0  0 
  8  9  1  0  0  0  0 
  9 10  2  0  0  0  0 
  9 11  1  0  0  0  0 
 11 12  1  0  0  0  0 
M  END
> <Name>
Adipic acid, dihydrazide (8CI)

> <Source>
NIST2DMolFile

> <Tox>
1.626

> <CAS>
1071-93-8

$$$$

  CDK

  8  8  0  0  0  0  0  0  0  0999 V2000
    0.0000    1.6057    0.0000 C   0  0  0  0  0  0  0  0  0  0  0  0
    0.0000    2.5089    0.0000 C   0  0  0  0  0  0  0  0  0  0  0  0
    1.6057    1.6057    0.0000 C   0  0  0  0  0  0  0  0  0  0  0  0
    0.8029    2.9605    0.0000 N   0  0  0  0  0  0  0  0  0  0  0  0
    1.6057    2.5089    0.0000 C   0  0  0  0  0  0  0  0  0  0  0  0
    2.0573    0.8029    0.0000 C   0  0  0  0  0  0  0  0  0  0  0  0
    2.9605    0.8029    0.0000 C   0  0  0  0  0  0  0  0  0  0  0  0
    1.6057    0.0000    0.0000 O   0  0  0  0  0  0  0  0  0  0  0  0
  1  2  2  0  0  0  0 
  3  1  1  0  0  0  0 
  2  4  1  0  0  0  0 
  5  3  2  0  0  0  0 
  3  6  1  0  0  0  0 
  4  5  1  0  0  0  0 
  6  7  1  0  0  0  0 
  6  8  2  0  0  0  0 
M  END
> <Name>
Ketone,methyl pyrrol-3-yl (7CI,8CI)

> <Source>
NIST2DMolFile

> <Tox>
2.150

> <CAS>
1072-82-8

$$$$

  CDK

  8  8  0  0  0  0  0  0  0  0999 V2000
    1.6740    1.2681    0.0000 C   0  0  0  0  0  0  0  0  0  0  0  0
    0.8116    0.7102    0.0000 N   0  0  0  0  0  0  0  0  0  0  0  0
    1.3189    2.2319    0.0000 C   0  0  0  0  0  0  0  0  0  0  0  0
    2.5870    0.9638    0.0000 C   0  0  0  0  0  0  0  0  0  0  0  0
    0.0000    1.3189    0.0000 C   0  0  0  0  0  0  0  0  0  0  0  0
    0.3044    2.2319    0.0000 C   0  0  0  0  0  0  0  0  0  0  0  0
    3.3479    1.6232    0.0000 C   0  0  0  0  0  0  0  0  0  0  0  0
    2.7899    0.0000    0.0000 O   0  0  0  0  0  0  0  0  0  0  0  0
  1  2  1  0  0  0  0 
  3  1  2  0  0  0  0 
  1  4  1  0  0  0  0 
  2  5  1  0  0  0  0 
  6  3  1  0  0  0  0 
  4  7  1  0  0  0  0 
  4  8  2  0  0  0  0 
  5  6  2  0  0  0  0 
M  END
> <Name>
1-(1H-Pyrrol-2-yl)ethan-1-one

> <Source>
NIST2DMolFile

> <Tox>
2.090

> <CAS>
1072-83-9

$$$$

  CDK

 14 15  0  0  0  0  0  0  0  0999 V2000
    5.6211    5.0064    1.2382 O   0  0  0  0  0  0  0  0  0  0  0  0
    6.1936    3.7858    1.4842 C   0  0  0  0  0  0  0  0  0  0  0  0
    5.3273    2.7017    1.7320 C   0  0  0  0  0  0  0  0  0  0  0  0
    7.5830    3.6064    1.4860 C   0  0  0  0  0  0  0  0  0  0  0  0
    5.8709    1.4420    1.9711 C   0  0  0  0  0  0  0  0  0  0  0  0
    3.8641    2.8542    1.7440 C   0  0  0  0  0  0  0  0  0  0  0  0
    8.1212    2.3501    1.7312 C   0  0  0  0  0  0  0  0  0  0  0  0
    7.2629    1.2727    1.9716 C   0  0  0  0  0  0  0  0  0  0  0  0
    3.2387    3.6187    2.7306 C   0  0  0  0  0  0  0  0  0  0  0  0
    3.0963    2.2091    0.7717 C   0  0  0  0  0  0  0  0  0  0  0  0
    7.7107    0.0000    2.2172 O   0  0  0  0  0  0  0  0  0  0  0  0
    1.8537    3.7370    2.7421 C   0  0  0  0  0  0  0  0  0  0  0  0
    1.7116    2.3354    0.7875 C   0  0  0  0  0  0  0  0  0  0  0  0
    1.0902    3.0968    1.7706 C   0  0  0  0  0  0  0  0  0  0  0  0
  1  2  1  0  0  0  0 
  3  2  2  0  0  0  0 
  2  4  1  0  0  0  0 
  5  3  1  0  0  0  0 
  3  6  1  0  0  0  0 
  4  7  2  0  0  0  0 
  8  5  2  0  0  0  0 
  9  6  2  0  0  0  0 
  6 10  1  0  0  0  0 
  7  8  1  0  0  0  0 
  8 11  1  0  0  0  0 
 12  9  1  0  0  0  0 
 10 13  2  0  0  0  0 
 14 12  2  0  0  0  0 
 13 14  1  0  0  0  0 
M  END
> <Name>
(1,1'-Biphenyl)-2,5-diol

> <Source>
NIST3DMolFile

> <Tox>
5.010

> <CAS>
1079-21-6

$$$$

  CDK

 15 15  0  0  0  0  0  0  0  0999 V2000
    0.0000   -2.6681    0.0000 C   0  0  0  0  0  0  0  0  0  0  0  0
    0.6688   -3.8168    0.0000 C   0  0  0  0  0  0  0  0  0  0  0  0
    1.9993   -3.8168    0.0000 O   0  0  0  0  0  0  0  0  0  0  0  0
    2.6608   -2.6681    0.0000 P   0  0  0  0  0  0  0  0  0  0  0  0
    3.3297   -1.5122    0.0000 O   0  0  0  0  0  0  0  0  0  0  0  0
    3.8168   -3.3297    0.0000 C   0  0  0  0  0  0  0  0  0  0  0  0
    1.5122   -1.9993    0.0000 O   0  0  0  0  0  0  0  0  0  0  0  0
    4.9655   -2.6681    0.0000 C   0  0  0  0  0  0  0  0  0  0  0  0
    1.5122   -0.6688    0.0000 C   0  0  0  0  0  0  0  0  0  0  0  0
    4.9655   -1.3377    0.0000 C   0  0  0  0  0  0  0  0  0  0  0  0
    6.1214   -3.3297    0.0000 C   0  0  0  0  0  0  0  0  0  0  0  0
    2.6608   -0.0000    0.0000 C   0  0  0  0  0  0  0  0  0  0  0  0
    6.1214   -0.6688    0.0000 C   0  0  0  0  0  0  0  0  0  0  0  0
    7.2701   -2.6681    0.0000 C   0  0  0  0  0  0  0  0  0  0  0  0
    7.2701   -1.3377    0.0000 C   0  0  0  0  0  0  0  0  0  0  0  0
  1  2  1  0  0  0  0 
  2  3  1  0  0  0  0 
  3  4  1  0  0  0  0 
  4  5  2  0  0  0  0 
  4  6  1  0  0  0  0 
  4  7  1  0  0  0  0 
  6  8  1  0  0  0  0 
  7  9  1  0  0  0  0 
  8 10  2  0  0  0  0 
  8 11  1  0  0  0  0 
  9 12  1  0  0  0  0 
 10 13  1  0  0  0  0 
 14 11  2  0  0  0  0 
 13 15  2  0  0  0  0 
 15 14  1  0  0  0  0 
M  END
> <Name>
Phosphonic acid, (phenylmethyl)-, diethyl ester

> <Source>
DSSTox2DMolFile

> <Tox>
2.570

> <CAS>
1080-32-6

$$$$

  CDK

 11 10  0  0  0  0  0  0  0  0999 V2000
    0.0000   -1.1573    0.0000 C   0  0  0  0  0  0  0  0  0  0  0  0
    0.6651   -2.3080    0.0000 O   0  0  0  0  0  0  0  0  0  0  0  0
    1.9954   -2.3080    0.0000 C   0  0  0  0  0  0  0  0  0  0  0  0
    2.6605   -1.1573    0.0000 O   0  0  0  0  0  0  0  0  0  0  0  0
    2.6605   -3.4587    0.0000 C   0  0  0  0  0  0  0  0  0  0  0  0
    3.9908   -3.4587    0.0000 C   0  0  0  0  0  0  0  0  0  0  0  0
    4.6559   -2.3080    0.0000 C   0  0  0  0  0  0  0  0  0  0  0  0
    5.9861   -2.3080    0.0000 C   0  0  0  0  0  0  0  0  0  0  0  0
    6.6513   -3.4587    0.0000 O   0  0  0  0  0  0  0  0  0  0  0  0
    6.6513   -1.1573    0.0000 O   0  0  0  0  0  0  0  0  0  0  0  0
    5.9861   -0.0000    0.0000 C   0  0  0  0  0  0  0  0  0  0  0  0
  1  2  1  0  0  0  0 
  2  3  1  0  0  0  0 
  3  4  2  0  0  0  0 
  3  5  1  0  0  0  0 
  5  6  1  0  0  0  0 
  6  7  1  0  0  0  0 
  7  8  1  0  0  0  0 
  8  9  2  0  0  0  0 
  8 10  1  0  0  0  0 
 10 11  1  0  0  0  0 
M  END
> <Name>
Glutaric acid, dimethyl ester (8CI)

> <Source>
DSSTox2DMolFile

> <Tox>
1.832

> <CAS>
1119-40-0

$$$$

  CDK

  8  7  0  0  0  0  0  0  0  0999 V2000
   -2.3625    1.2542   -0.0842 O   0  0  0  0  0  0  0  0  0  0  0  0
   -2.1451    0.0449   -0.0612 C   0  0  0  0  0  0  0  0  0  0  0  0
   -0.7837   -0.5118    0.1689 C   0  0  0  0  0  0  0  0  0  0  0  0
   -3.2531   -0.9485   -0.2936 C   0  0  0  0  0  0  0  0  0  0  0  0
    0.2592    0.3005    0.3855 C   0  0  0  0  0  0  0  0  0  0  0  0
    1.6573   -0.1968    0.6182 C   0  0  0  0  0  0  0  0  0  0  0  0
    2.6083    0.2905   -0.4754 C   0  0  0  0  0  0  0  0  0  0  0  0
    4.0195   -0.2330   -0.2581 C   0  0  0  0  0  0  0  0  0  0  0  0
  1  2  2  0  0  0  0 
  3  2  1  0  0  0  0 
  2  4  1  0  0  0  0 
  5  3  2  0  0  0  0 
  6  5  1  0  0  0  0 
  7  6  1  0  0  0  0 
  7  8  1  0  0  0  0 
M  END
> <Name>
(E)-hept-3-en-2-one

> <Source>
Chemidplus3DMolFile

> <Tox>
3.700

> <CAS>
1119-44-4

$$$$

  CDK

  8  7  0  0  0  0  0  0  0  0999 V2000
    0.8844    0.4162    0.0000 C   0  0  0  0  0  0  0  0  0  0  0  0
    0.0000    0.0000    0.0000 Cl  0  0  0  0  0  0  0  0  0  0  0  0
    1.8208    0.0000    0.0000 C   0  0  0  0  0  0  0  0  0  0  0  0
    2.6531    0.4162    0.0000 C   0  0  0  0  0  0  0  0  0  0  0  0
    3.5895    0.0000    0.0000 C   0  0  0  0  0  0  0  0  0  0  0  0
    4.5259    0.4162    0.0000 C   0  0  0  0  0  0  0  0  0  0  0  0
    5.4103    0.0000    0.0000 O   0  0  0  0  0  0  0  0  0  0  0  0
    4.5259    1.4566    0.0000 O   0  0  0  0  0  0  0  0  0  0  0  0
  1  2  1  0  0  0  0 
  1  3  1  0  0  0  0 
  3  4  1  0  0  0  0 
  5  4  1  0  0  0  0 
  6  5  1  0  0  0  0 
  6  7  1  0  0  0  0 
  6  8  2  0  0  0  0 
M  END
> <Name>
5-Chlorovaleric acid

> <Source>
NIST2DMolFile

> <Tox>
2.714

> <CAS>
1119-46-6

$$$$

  CDK

 12 11  0  0  0  0  0  0  0  0999 V2000
    3.0565    2.9076    3.4466 C   0  0  0  0  0  0  0  0  0  0  0  0
    4.4740    3.0818    2.9267 C   0  0  0  0  0  0  0  0  0  0  0  0
    2.6896    1.4375    3.5869 C   0  0  0  0  0  0  0  0  0  0  0  0
    4.6162    2.5749    1.4978 C   0  0  0  0  0  0  0  0  0  0  0  0
    1.2398    1.2138    3.9901 C   0  0  0  0  0  0  0  0  0  0  0  0
    6.0724    2.3977    1.0996 C   0  0  0  0  0  0  0  0  0  0  0  0
    0.9839    1.3606    5.4843 C   0  0  0  0  0  0  0  0  0  0  0  0
    6.7312    1.2691    1.9070 C   0  0  0  0  0  0  0  0  0  0  0  0
    0.8473    2.7996    5.9280 C   0  0  0  0  0  0  0  0  0  0  0  0
    6.1707    0.0000    1.6172 O   0  0  0  0  0  0  0  0  0  0  0  0
    8.2474    1.1662    1.6416 C   0  0  0  0  0  0  0  0  0  0  0  0
    8.5886    0.9704    0.2974 O   0  0  0  0  0  0  0  0  0  0  0  0
  1  2  1  0  0  0  0 
  1  3  1  0  0  0  0 
  2  4  1  0  0  0  0 
  3  5  1  0  0  0  0 
  4  6  1  0  0  0  0 
  5  7  1  0  0  0  0 
  6  8  1  0  0  0  0 
  7  9  1  0  0  0  0 
  8 10  1  0  0  0  0 
  8 11  1  0  0  0  0 
 11 12  1  0  0  0  0 
M  END
> <Name>
Decane-1,2-diol

> <Source>
NIST3DMolFile

> <Tox>
3.764

> <CAS>
1119-86-4

$$$$

  CDK

 11 10  0  0  0  0  0  0  0  0999 V2000
    4.1212   -1.3516    0.4004 O   0  0  0  0  0  0  0  0  0  0  0  0
    4.0300   -0.1310   -0.3291 C   0  0  0  0  0  0  0  0  0  0  0  0
    2.7457    0.5999    0.0732 C   0  0  0  0  0  0  0  0  0  0  0  0
    5.2615    0.7134   -0.0301 C   0  0  0  0  0  0  0  0  0  0  0  0
    1.4915   -0.2263   -0.2325 C   0  0  0  0  0  0  0  0  0  0  0  0
    0.2197    0.5334    0.1500 C   0  0  0  0  0  0  0  0  0  0  0  0
   -1.0342   -0.2732   -0.1919 C   0  0  0  0  0  0  0  0  0  0  0  0
   -2.3054    0.4720    0.2214 C   0  0  0  0  0  0  0  0  0  0  0  0
   -3.5590   -0.3222   -0.1521 C   0  0  0  0  0  0  0  0  0  0  0  0
   -4.8612    0.3909    0.2184 C   0  0  0  0  0  0  0  0  0  0  0  0
   -6.1099   -0.4054   -0.1276 C   0  0  0  0  0  0  0  0  0  0  0  0
  1  2  1  0  0  0  0 
  3  2  1  0  0  0  0 
  2  4  1  0  0  0  0 
  5  3  1  0  0  0  0 
  6  5  1  0  0  0  0 
  6  7  1  0  0  0  0 
  7  8  1  0  0  0  0 
  8  9  1  0  0  0  0 
  9 10  1  0  0  0  0 
 10 11  1  0  0  0  0 
M  END
> <Name>
decan-2-ol

> <Source>
Chemidplus3DMolFile

> <Tox>
3.990

> <CAS>
1120-06-5

$$$$

  CDK

  7  7  0  0  0  0  0  0  0  0999 V2000
    3.9869    0.8371    0.9973 C   0  0  0  0  0  0  0  0  0  0  0  0
    2.5024    1.0194    0.9454 C   0  0  0  0  0  0  0  0  0  0  0  0
    4.5424    2.1761    1.4958 C   0  0  0  0  0  0  0  0  0  0  0  0
    2.1198    2.2471    1.3381 C   0  0  0  0  0  0  0  0  0  0  0  0
    3.3187    3.0594    1.7083 C   0  0  0  0  0  0  0  0  0  0  0  0
    0.7444    2.7682    1.4030 C   0  0  0  0  0  0  0  0  0  0  0  0
    3.3305    4.2040    2.1050 O   0  0  0  0  0  0  0  0  0  0  0  0
  1  2  1  0  0  0  0 
  3  1  1  0  0  0  0 
  2  4  2  0  0  0  0 
  5  3  1  0  0  0  0 
  4  5  1  0  0  0  0 
  4  6  1  0  0  0  0 
  5  7  2  0  0  0  0 
M  END
> <Name>
2-methylcyclopent-2-en-1-one

> <Source>
NIST3DMolFile

> <Tox>
2.170

> <CAS>
1120-73-6

$$$$

  CDK

  8  8  0  0  0  0  0  0  0  0999 V2000
    1.7244    0.5072    0.0000 C   0  0  0  0  0  0  0  0  0  0  0  0
    1.7244    1.4708    0.0000 C   0  0  0  0  0  0  0  0  0  0  0  0
    0.8622    0.0000    0.0000 N   0  0  0  0  0  0  0  0  0  0  0  0
    2.6374    0.0000    0.0000 C   0  0  0  0  0  0  0  0  0  0  0  0
    0.8622    1.9780    0.0000 C   0  0  0  0  0  0  0  0  0  0  0  0
    0.0000    0.5072    0.0000 C   0  0  0  0  0  0  0  0  0  0  0  0
    3.4996    0.5579    0.0000 O   0  0  0  0  0  0  0  0  0  0  0  0
    0.0000    1.4708    0.0000 C   0  0  0  0  0  0  0  0  0  0  0  0
  2  1  2  0  0  0  0 
  1  3  1  0  0  0  0 
  1  4  1  0  0  0  0 
  5  2  1  0  0  0  0 
  3  6  2  0  0  0  0 
  4  7  2  0  0  0  0 
  8  5  2  0  0  0  0 
  6  8  1  0  0  0  0 
M  END
> <Name>
pyridine-2-carbaldehyde

> <Source>
NIST2DMolFile

> <Tox>
2.860

> <CAS>
1121-60-4

$$$$

  CDK

  9  9  0  0  0  0  0  0  0  0999 V2000
    4.6539   -1.1542    0.0000 N   0  0  0  0  0  0  0  0  0  0  0  0
    3.9884   -2.3037    0.0000 C   0  0  0  0  0  0  0  0  0  0  0  0
    3.9884   -0.0000    0.0000 C   0  0  0  0  0  0  0  0  0  0  0  0
    2.6574   -2.3037    0.0000 C   0  0  0  0  0  0  0  0  0  0  0  0
    2.6574   -0.0000    0.0000 C   0  0  0  0  0  0  0  0  0  0  0  0
    1.9965   -1.1542    0.0000 C   0  0  0  0  0  0  0  0  0  0  0  0
    0.6655   -1.1542    0.0000 C   0  0  0  0  0  0  0  0  0  0  0  0
    0.0000   -2.3037    0.0000 O   0  0  0  0  0  0  0  0  0  0  0  0
    0.0000   -0.0000    0.0000 C   0  0  0  0  0  0  0  0  0  0  0  0
  1  2  2  0  0  0  0 
  1  3  1  0  0  0  0 
  2  4  1  0  0  0  0 
  5  3  2  0  0  0  0 
  4  6  2  0  0  0  0 
  6  5  1  0  0  0  0 
  6  7  1  0  0  0  0 
  7  8  2  0  0  0  0 
  7  9  1  0  0  0  0 
M  END
> <Name>
Ethanone, 1-(4-pyridinyl)-

> <Source>
DSSTox2DMolFile

> <Tox>
2.130

> <CAS>
1122-54-9

$$$$

  CDK

  9  9  0  0  0  0  0  0  0  0999 V2000
   -2.3481    1.0977    0.0001 O   0  0  0  0  0  0  0  0  0  0  0  0
   -1.7397    0.0000    0.0001 N   0  0  0  0  0  0  0  0  0  0  0  0
   -2.3482   -1.0976   -0.0002 O   0  0  0  0  0  0  0  0  0  0  0  0
   -0.3201    0.0000    0.0000 C   0  0  0  0  0  0  0  0  0  0  0  0
    0.3780    1.2026   -0.0001 C   0  0  0  0  0  0  0  0  0  0  0  0
    0.3779   -1.2026    0.0001 C   0  0  0  0  0  0  0  0  0  0  0  0
    1.7625    1.1488   -0.0001 C   0  0  0  0  0  0  0  0  0  0  0  0
    1.7624   -1.1488    0.0001 C   0  0  0  0  0  0  0  0  0  0  0  0
    2.4753    0.0000    0.0000 N   0  0  0  0  0  0  0  0  0  0  0  0
  1  2  1  0  0  0  0 
  3  2  2  0  0  0  0 
  2  4  1  0  0  0  0 
  4  5  2  0  0  0  0 
  4  6  1  0  0  0  0 
  5  7  1  0  0  0  0 
  6  8  2  0  0  0  0 
  9  7  2  0  0  0  0 
  9  8  1  0  0  0  0 
M  CHG  1   1  -1
M  CHG  1   2   1
M  END
> <Name>
4-nitropyridine

> <Source>
Chemidplus3DMolFile

> <Tox>
3.410

> <CAS>
1122-61-8

$$$$

  CDK

  9  9  0  0  0  0  0  0  0  0999 V2000
    0.0000    2.0022    0.0000 Br  0  0  0  0  0  0  0  0  0  0  0  0
    0.8510    1.5017    0.0000 C   0  0  0  0  0  0  0  0  0  0  0  0
    0.8510    0.5006    0.0000 C   0  0  0  0  0  0  0  0  0  0  0  0
    1.7019    2.0022    0.0000 C   0  0  0  0  0  0  0  0  0  0  0  0
    1.7019    0.0000    0.0000 C   0  0  0  0  0  0  0  0  0  0  0  0
    2.6029    1.5017    0.0000 C   0  0  0  0  0  0  0  0  0  0  0  0
    2.6029    0.5006    0.0000 C   0  0  0  0  0  0  0  0  0  0  0  0
    3.4539    0.0000    0.0000 C   0  0  0  0  0  0  0  0  0  0  0  0
    4.3048    0.5006    0.0000 O   0  0  0  0  0  0  0  0  0  0  0  0
  1  2  1  0  0  0  0 
  3  2  2  0  0  0  0 
  2  4  1  0  0  0  0 
  5  3  1  0  0  0  0 
  4  6  2  0  0  0  0 
  7  5  2  0  0  0  0 
  6  7  1  0  0  0  0 
  7  8  1  0  0  0  0 
  8  9  2  0  0  0  0 
M  END
> <Name>
Benzaldehyde, 4-bromo-

> <Source>
NIST2DMolFile

> <Tox>
3.587

> <CAS>
1122-91-4

$$$$

  CDK

 10 10  0  0  0  0  0  0  0  0999 V2000
   -2.2590    0.3334   -0.5220 C   0  0  0  0  0  0  0  0  0  0  0  0
   -1.3919   -0.3801    0.5330 C   0  0  0  0  0  0  0  0  0  0  0  0
   -2.1602    1.7298   -0.4686 O   0  0  0  0  0  0  0  0  0  0  0  0
    0.0722   -0.1906    0.2454 C   0  0  0  0  0  0  0  0  0  0  0  0
   -1.7525   -1.8554    0.5885 C   0  0  0  0  0  0  0  0  0  0  0  0
    0.6511   -0.6881   -0.9242 C   0  0  0  0  0  0  0  0  0  0  0  0
    0.8716    0.4920    1.1649 C   0  0  0  0  0  0  0  0  0  0  0  0
    2.0070   -0.5046   -1.1689 C   0  0  0  0  0  0  0  0  0  0  0  0
    2.2277    0.6739    0.9173 C   0  0  0  0  0  0  0  0  0  0  0  0
    2.7976    0.1766   -0.2494 C   0  0  0  0  0  0  0  0  0  0  0  0
  1  2  1  0  0  0  0 
  1  3  1  0  0  0  0 
  2  4  1  0  0  0  0 
  2  5  1  0  0  0  0 
  4  6  1  0  0  0  0 
  4  7  2  0  0  0  0 
  6  8  2  0  0  0  0 
  9  7  1  0  0  0  0 
  8 10  1  0  0  0  0 
 10  9  2  0  0  0  0 
M  END
> <Name>
Phenethyl alcohol, beta-methyl-

> <Source>
DougDB3DMolFile

> <Tox>
2.600

> <CAS>
1123-85-9

$$$$

  CDK

 10 10  0  0  0  0  0  0  0  0999 V2000
    2.4954    0.9167    0.0000 C   0  0  0  0  0  0  0  0  0  0  0  0
    1.5278    0.9167    0.0000 C   0  0  0  0  0  0  0  0  0  0  0  0
    3.0046    1.7315    0.0000 C   0  0  0  0  0  0  0  0  0  0  0  0
    3.0046    0.0000    0.0000 C   0  0  0  0  0  0  0  0  0  0  0  0
    1.0185    1.7315    0.0000 C   0  0  0  0  0  0  0  0  0  0  0  0
    2.4954    2.5972    0.0000 C   0  0  0  0  0  0  0  0  0  0  0  0
    4.0231    1.7315    0.0000 C   0  0  0  0  0  0  0  0  0  0  0  0
    1.5278    2.5972    0.0000 C   0  0  0  0  0  0  0  0  0  0  0  0
    0.0000    1.7315    0.0000 O   0  0  0  0  0  0  0  0  0  0  0  0
    1.0185    3.5139    0.0000 Cl  0  0  0  0  0  0  0  0  0  0  0  0
  2  1  2  0  0  0  0 
  1  3  1  0  0  0  0 
  1  4  1  0  0  0  0 
  5  2  1  0  0  0  0 
  3  6  2  0  0  0  0 
  3  7  1  0  0  0  0 
  8  5  2  0  0  0  0 
  5  9  1  0  0  0  0 
  6  8  1  0  0  0  0 
  8 10  1  0  0  0  0 
M  END
> <Name>
Phenol, 2-chloro-4,5-dimethyl- (9CI)

> <Source>
NIST2DMolFile

> <Tox>
3.690

> <CAS>
1124-04-5

$$$$

  CDK

 11 11  0  0  0  0  0  0  0  0999 V2000
    3.3269   -3.4525    0.0000 C   0  0  0  0  0  0  0  0  0  0  0  0
    1.9925   -3.4525    0.0000 C   0  0  0  0  0  0  0  0  0  0  0  0
    3.9910   -2.3037    0.0000 C   0  0  0  0  0  0  0  0  0  0  0  0
    1.3283   -2.3037    0.0000 C   0  0  0  0  0  0  0  0  0  0  0  0
    3.3269   -1.1488    0.0000 C   0  0  0  0  0  0  0  0  0  0  0  0
    5.3194   -2.3037    0.0000 C   0  0  0  0  0  0  0  0  0  0  0  0
    0.0000   -2.3037    0.0000 Cl  0  0  0  0  0  0  0  0  0  0  0  0
    1.9925   -1.1488    0.0000 C   0  0  0  0  0  0  0  0  0  0  0  0
    5.9835   -3.4525    0.0000 O   0  0  0  0  0  0  0  0  0  0  0  0
    5.9835   -1.1488    0.0000 O   0  0  0  0  0  0  0  0  0  0  0  0
    5.3194   -0.0000    0.0000 C   0  0  0  0  0  0  0  0  0  0  0  0
  1  2  2  0  0  0  0 
  1  3  1  0  0  0  0 
  2  4  1  0  0  0  0 
  5  3  2  0  0  0  0 
  3  6  1  0  0  0  0 
  4  7  1  0  0  0  0 
  4  8  2  0  0  0  0 
  8  5  1  0  0  0  0 
  6  9  2  0  0  0  0 
  6 10  1  0  0  0  0 
 10 11  1  0  0  0  0 
M  END
> <Name>
Benzoic acid, p-chloro-, methyl ester (8CI)

> <Source>
DSSTox2DMolFile

> <Tox>
3.420

> <CAS>
1126-46-1

$$$$

  CDK

 12 13  0  0  0  0  0  0  0  0999 V2000
    5.4671    4.2827    2.0773 C   0  0  0  0  0  0  0  0  0  0  0  0
    6.2146    5.0361    0.9968 C   0  0  0  0  0  0  0  0  0  0  0  0
    3.9855    4.3768    1.8869 C   0  0  0  0  0  0  0  0  0  0  0  0
    3.3415    5.5569    2.1756 C   0  0  0  0  0  0  0  0  0  0  0  0
    3.2314    3.2610    1.4106 C   0  0  0  0  0  0  0  0  0  0  0  0
    1.9470    5.6875    1.9988 C   0  0  0  0  0  0  0  0  0  0  0  0
    1.8377    3.3994    1.2315 C   0  0  0  0  0  0  0  0  0  0  0  0
    3.8354    2.0087    1.1114 C   0  0  0  0  0  0  0  0  0  0  0  0
    1.2069    4.6351    1.5339 C   0  0  0  0  0  0  0  0  0  0  0  0
    1.0804    2.2967    0.7496 C   0  0  0  0  0  0  0  0  0  0  0  0
    3.0868    0.9616    0.6499 C   0  0  0  0  0  0  0  0  0  0  0  0
    1.6925    1.1071    0.4639 C   0  0  0  0  0  0  0  0  0  0  0  0
  1  2  1  0  0  0  0 
  1  3  1  0  0  0  0 
  4  3  2  0  0  0  0 
  3  5  1  0  0  0  0 
  6  4  1  0  0  0  0 
  7  5  2  0  0  0  0 
  5  8  1  0  0  0  0 
  9  6  2  0  0  0  0 
  7  9  1  0  0  0  0 
 10  7  1  0  0  0  0 
  8 11  2  0  0  0  0 
 12 10  2  0  0  0  0 
 11 12  1  0  0  0  0 
M  END
> <Name>
1-ethylnaphthalene

> <Source>
NIST3DMolFile

> <Tox>
3.890

> <CAS>
1127-76-0

$$$$

  CDK

 12 12  0  0  0  0  0  0  0  0999 V2000
    4.6544   -3.4542    0.0000 C   0  0  0  0  0  0  0  0  0  0  0  0
    3.3298   -3.4542    0.0000 C   0  0  0  0  0  0  0  0  0  0  0  0
    5.3203   -2.3052    0.0000 C   0  0  0  0  0  0  0  0  0  0  0  0
    2.6638   -2.3052    0.0000 C   0  0  0  0  0  0  0  0  0  0  0  0
    4.6544   -1.1490    0.0000 C   0  0  0  0  0  0  0  0  0  0  0  0
    6.6523   -2.3052    0.0000 C   0  0  0  0  0  0  0  0  0  0  0  0
    1.3319   -2.3052    0.0000 C   0  0  0  0  0  0  0  0  0  0  0  0
    3.3298   -1.1490    0.0000 C   0  0  0  0  0  0  0  0  0  0  0  0
    7.3182   -3.4542    0.0000 O   0  0  0  0  0  0  0  0  0  0  0  0
    7.3182   -1.1490    0.0000 O   0  0  0  0  0  0  0  0  0  0  0  0
    0.0000   -2.3052    0.0000 N   0  0  0  0  0  0  0  0  0  0  0  0
    6.6523   -0.0000    0.0000 C   0  0  0  0  0  0  0  0  0  0  0  0
  1  2  2  0  0  0  0 
  1  3  1  0  0  0  0 
  2  4  1  0  0  0  0 
  5  3  2  0  0  0  0 
  3  6  1  0  0  0  0 
  4  7  1  0  0  0  0 
  4  8  2  0  0  0  0 
  8  5  1  0  0  0  0 
  6  9  2  0  0  0  0 
  6 10  1  0  0  0  0 
  7 11  3  0  0  0  0 
 10 12  1  0  0  0  0 
M  END
> <Name>
Methyl 4-cyanobenzoate

> <Source>
DSSTox2DMolFile

> <Tox>
2.950

> <CAS>
1129-35-7

$$$$

  CDK

 12 12  0  0  0  0  0  0  0  0999 V2000
    3.4778    0.8446    0.0000 C   0  0  0  0  0  0  0  0  0  0  0  0
    2.9809    0.0000    0.0000 C   0  0  0  0  0  0  0  0  0  0  0  0
    2.9809    1.7389    0.0000 C   0  0  0  0  0  0  0  0  0  0  0  0
    4.4714    0.8446    0.0000 C   0  0  0  0  0  0  0  0  0  0  0  0
    1.9873    0.0000    0.0000 C   0  0  0  0  0  0  0  0  0  0  0  0
    1.9873    1.7389    0.0000 C   0  0  0  0  0  0  0  0  0  0  0  0
    4.9682    1.7389    0.0000 N   0  0  0  0  0  0  0  0  0  0  0  0
    1.4905    0.8446    0.0000 C   0  0  0  0  0  0  0  0  0  0  0  0
    5.9619    1.7389    0.0000 O   0  0  0  0  0  0  0  0  0  0  0  0
    0.4968    0.8446    0.0000 N   0  0  0  0  0  0  0  0  0  0  0  0
    0.0000    0.0000    0.0000 O   0  0  0  0  0  0  0  0  0  0  0  0
    0.0000    1.7389    0.0000 O   0  0  0  0  0  0  0  0  0  0  0  0
  1  2  2  0  0  0  0 
  3  1  1  0  0  0  0 
  1  4  1  0  0  0  0 
  2  5  1  0  0  0  0 
  6  3  2  0  0  0  0 
  4  7  2  0  0  0  0 
  5  8  2  0  0  0  0 
  8  6  1  0  0  0  0 
  7  9  1  0  0  0  0 
  8 10  1  0  0  0  0 
 10 11  2  0  0  0  0 
 10 12  2  0  0  0  0 
M  END
> <Name>
Benzaldehyde, 4-nitro-, oxime (9CI)

> <Source>
NIST2DMolFile

> <Tox>
3.680

> <CAS>
1129-37-9

$$$$

  CDK

 15 16  0  0  0  0  0  0  0  0999 V2000
    2.5965    1.4980    0.0000 C   0  0  0  0  0  0  0  0  0  0  0  0
    1.7477    1.9973    0.0000 C   0  0  0  0  0  0  0  0  0  0  0  0
    2.5965    0.4993    0.0000 C   0  0  0  0  0  0  0  0  0  0  0  0
    3.4953    1.9973    0.0000 C   0  0  0  0  0  0  0  0  0  0  0  0
    0.8988    1.4980    0.0000 C   0  0  0  0  0  0  0  0  0  0  0  0
    1.7477    0.0000    0.0000 C   0  0  0  0  0  0  0  0  0  0  0  0
    4.3442    1.4980    0.0000 C   0  0  0  0  0  0  0  0  0  0  0  0
    3.4953    2.9960    0.0000 O   0  0  0  0  0  0  0  0  0  0  0  0
    0.8988    0.4993    0.0000 C   0  0  0  0  0  0  0  0  0  0  0  0
    5.1931    1.9973    0.0000 C   0  0  0  0  0  0  0  0  0  0  0  0
    4.3442    0.4993    0.0000 C   0  0  0  0  0  0  0  0  0  0  0  0
    0.0000    0.0000    0.0000 N   0  0  0  0  0  0  0  0  0  0  0  0
    6.0919    1.4980    0.0000 C   0  0  0  0  0  0  0  0  0  0  0  0
    5.1931    0.0000    0.0000 C   0  0  0  0  0  0  0  0  0  0  0  0
    6.0919    0.4993    0.0000 C   0  0  0  0  0  0  0  0  0  0  0  0
  2  1  2  0  0  0  0 
  1  3  1  0  0  0  0 
  1  4  1  0  0  0  0 
  5  2  1  0  0  0  0 
  3  6  2  0  0  0  0 
  4  7  1  0  0  0  0 
  4  8  2  0  0  0  0 
  9  5  2  0  0  0  0 
  6  9  1  0  0  0  0 
  7 10  2  0  0  0  0 
 11  7  1  0  0  0  0 
  9 12  1  0  0  0  0 
 10 13  1  0  0  0  0 
 14 11  2  0  0  0  0 
 13 15  2  0  0  0  0 
 15 14  1  0  0  0  0 
M  END
> <Name>
Methanone, (4-aminophenyl)phenyl-

> <Source>
NIST2DMolFile

> <Tox>
3.680

> <CAS>
1137-41-3

$$$$

  CDK

 15 15  0  0  0  0  0  0  0  0999 V2000
    4.3473    0.8495    0.0000 C   0  0  0  0  0  0  0  0  0  0  0  0
    3.7976    0.0000    0.0000 C   0  0  0  0  0  0  0  0  0  0  0  0
    4.8470    1.6989    0.0000 C   0  0  0  0  0  0  0  0  0  0  0  0
    5.1968    0.3498    0.0000 C   0  0  0  0  0  0  0  0  0  0  0  0
    3.4478    1.3492    0.0000 C   0  0  0  0  0  0  0  0  0  0  0  0
    2.5984    0.8495    0.0000 C   0  0  0  0  0  0  0  0  0  0  0  0
    3.4478    2.3485    0.0000 C   0  0  0  0  0  0  0  0  0  0  0  0
    1.6989    1.3492    0.0000 C   0  0  0  0  0  0  0  0  0  0  0  0
    2.5984    2.8482    0.0000 C   0  0  0  0  0  0  0  0  0  0  0  0
    0.8495    0.8495    0.0000 C   0  0  0  0  0  0  0  0  0  0  0  0
    1.6989    2.3485    0.0000 C   0  0  0  0  0  0  0  0  0  0  0  0
    2.5984    3.8476    0.0000 O   0  0  0  0  0  0  0  0  0  0  0  0
    1.3492    0.0000    0.0000 C   0  0  0  0  0  0  0  0  0  0  0  0
    0.3498    1.7489    0.0000 C   0  0  0  0  0  0  0  0  0  0  0  0
    0.0000    0.3998    0.0000 C   0  0  0  0  0  0  0  0  0  0  0  0
  1  2  1  0  0  0  0 
  1  3  1  0  0  0  0 
  1  4  1  0  0  0  0 
  1  5  1  0  0  0  0 
  5  6  2  0  0  0  0 
  7  5  1  0  0  0  0 
  6  8  1  0  0  0  0 
  9  7  2  0  0  0  0 
  8 10  1  0  0  0  0 
  8 11  2  0  0  0  0 
 11  9  1  0  0  0  0 
  9 12  1  0  0  0  0 
 10 13  1  0  0  0  0 
 10 14  1  0  0  0  0 
 10 15  1  0  0  0  0 
M  END
> <Name>
Phenol, 3,5-di-tert-butyl- (8CI)

> <Source>
NIST2DMolFile

> <Tox>
4.640

> <CAS>
1138-52-9

$$$$

  CDK

 17 18  0  0  0  0  0  0  0  0999 V2000
    3.9983    1.7493    0.0000 C   0  0  0  0  0  0  0  0  0  0  0  0
    2.9988    1.7493    0.0000 C   0  0  0  0  0  0  0  0  0  0  0  0
    4.4981    2.5989    0.0000 C   0  0  0  0  0  0  0  0  0  0  0  0
    4.4981    0.8996    0.0000 O   0  0  0  0  0  0  0  0  0  0  0  0
    2.4990    0.8996    0.0000 C   0  0  0  0  0  0  0  0  0  0  0  0
    2.4990    2.5989    0.0000 C   0  0  0  0  0  0  0  0  0  0  0  0
    3.9983    3.4985    0.0000 C   0  0  0  0  0  0  0  0  0  0  0  0
    5.4977    2.5989    0.0000 C   0  0  0  0  0  0  0  0  0  0  0  0
    1.4994    0.8996    0.0000 C   0  0  0  0  0  0  0  0  0  0  0  0
    2.9988    0.0000    0.0000 O   0  0  0  0  0  0  0  0  0  0  0  0
    1.4994    2.5989    0.0000 C   0  0  0  0  0  0  0  0  0  0  0  0
    4.4981    4.3482    0.0000 C   0  0  0  0  0  0  0  0  0  0  0  0
    5.9975    3.4985    0.0000 C   0  0  0  0  0  0  0  0  0  0  0  0
    0.9996    1.7493    0.0000 C   0  0  0  0  0  0  0  0  0  0  0  0
    0.9996    0.0000    0.0000 O   0  0  0  0  0  0  0  0  0  0  0  0
    5.4977    4.3482    0.0000 C   0  0  0  0  0  0  0  0  0  0  0  0
    0.0000    1.7493    0.0000 O   0  0  0  0  0  0  0  0  0  0  0  0
  1  2  1  0  0  0  0 
  1  3  1  0  0  0  0 
  1  4  2  0  0  0  0 
  5  2  2  0  0  0  0 
  2  6  1  0  0  0  0 
  7  3  2  0  0  0  0 
  3  8  1  0  0  0  0 
  9  5  1  0  0  0  0 
  5 10  1  0  0  0  0 
  6 11  2  0  0  0  0 
 12  7  1  0  0  0  0 
  8 13  2  0  0  0  0 
 14  9  2  0  0  0  0 
  9 15  1  0  0  0  0 
 11 14  1  0  0  0  0 
 16 12  2  0  0  0  0 
 13 16  1  0  0  0  0 
 14 17  1  0  0  0  0 
M  END
> <Name>
Benzophenone, 2,3,4-trihydroxy- (8CI)

> <Source>
NIST2DMolFile

> <Tox>
3.880

> <CAS>
1143-72-2

$$$$

  CDK

  6  5  0  0  0  0  0  0  0  0999 V2000
    0.0000    0.0000    0.0000 C   0  0  0  0  0  0  0  0  0  0  0  0
    0.6200    1.1200   -0.8400 C   0  0  0  0  0  0  0  0  0  0  0  0
    2.1200    1.0000   -0.9200 C   0  0  0  0  0  0  0  0  0  0  0  0
    2.6600   -0.0800   -0.8800 O   0  0  0  0  0  0  0  0  0  0  0  0
    2.8600    2.1400   -1.0600 N   0  0  0  0  0  0  0  0  0  0  0  0
    4.3200    2.0600   -1.1600 C   0  0  0  0  0  0  0  0  0  0  0  0
  1  2  1  0  0  0  0 
  2  3  1  0  0  0  0 
  3  4  2  0  0  0  0 
  3  5  1  0  0  0  0 
  5  6  1  0  0  0  0 
M  END
> <Name>
N-methylpropanamide

> <Source>
NIH3DMolFile

> <Tox>
1.474

> <CAS>
1187-58-2

$$$$

  CDK

  8  8  0  0  0  0  0  0  0  0999 V2000
    3.1859    2.8497    1.0327 C   0  0  0  0  0  0  0  0  0  0  0  0
    1.9574    2.2242    0.8422 O   0  0  0  0  0  0  0  0  0  0  0  0
    3.0135    4.2178    1.0615 C   0  0  0  0  0  0  0  0  0  0  0  0
    4.4034    2.0228    1.1632 C   0  0  0  0  0  0  0  0  0  0  0  0
    1.0204    3.2200    0.7502 C   0  0  0  0  0  0  0  0  0  0  0  0
    1.6083    4.4562    0.8774 C   0  0  0  0  0  0  0  0  0  0  0  0
    4.2501    0.5364    0.9998 C   0  0  0  0  0  0  0  0  0  0  0  0
    5.4795    2.5467    1.3899 O   0  0  0  0  0  0  0  0  0  0  0  0
  1  2  1  0  0  0  0 
  3  1  2  0  0  0  0 
  1  4  1  0  0  0  0 
  2  5  1  0  0  0  0 
  6  3  1  0  0  0  0 
  4  7  1  0  0  0  0 
  4  8  2  0  0  0  0 
  5  6  2  0  0  0  0 
M  END
> <Name>
Ethanone, 1-(2-furanyl)-

> <Source>
NIST3DMolFile

> <Tox>
1.960

> <CAS>
1192-62-7

$$$$

  CDK

  9  9  0  0  0  0  0  0  0  0999 V2000
    0.5254    0.7572   -0.0002 O   0  0  0  0  0  0  0  0  0  0  0  0
   -0.3868   -0.2500   -0.0005 C   0  0  0  0  0  0  0  0  0  0  0  0
    1.7514    0.1712    0.0002 C   0  0  0  0  0  0  0  0  0  0  0  0
    0.2433   -1.4727   -0.0004 C   0  0  0  0  0  0  0  0  0  0  0  0
   -1.7659    0.1008    0.0002 C   0  0  0  0  0  0  0  0  0  0  0  0
    1.6320   -1.1992    0.0002 C   0  0  0  0  0  0  0  0  0  0  0  0
    2.9063    1.0802    0.0003 C   0  0  0  0  0  0  0  0  0  0  0  0
   -2.6893   -0.7620    0.0006 O   0  0  0  0  0  0  0  0  0  0  0  0
   -2.2164    1.5745   -0.0002 C   0  0  0  0  0  0  0  0  0  0  0  0
  1  2  1  0  0  0  0 
  1  3  1  0  0  0  0 
  2  4  2  0  0  0  0 
  2  5  1  0  0  0  0 
  3  6  2  0  0  0  0 
  3  7  1  0  0  0  0 
  4  6  1  0  0  0  0 
  8  5  2  0  0  0  0 
  5  9  1  0  0  0  0 
M  END
> <Name>
1-(5-methylfuran-2-yl)ethanone

> <Source>
Chemidplus3DMolFile

> <Tox>
2.170

> <CAS>
1193-79-9

$$$$

  CDK

 10 10  0  0  0  0  0  0  0  0999 V2000
    3.0359    0.8096    0.0000 C   0  0  0  0  0  0  0  0  0  0  0  0
    2.0239    0.8096    0.0000 C   0  0  0  0  0  0  0  0  0  0  0  0
    3.5419    1.6697    0.0000 C   0  0  0  0  0  0  0  0  0  0  0  0
    1.5179    1.6697    0.0000 C   0  0  0  0  0  0  0  0  0  0  0  0
    1.5179    0.0000    0.0000 O   0  0  0  0  0  0  0  0  0  0  0  0
    3.0359    2.5805    0.0000 C   0  0  0  0  0  0  0  0  0  0  0  0
    2.0239    2.5805    0.0000 C   0  0  0  0  0  0  0  0  0  0  0  0
    0.5566    1.6697    0.0000 C   0  0  0  0  0  0  0  0  0  0  0  0
    3.5419    3.4407    0.0000 O   0  0  0  0  0  0  0  0  0  0  0  0
    0.0000    0.8602    0.0000 O   0  0  0  0  0  0  0  0  0  0  0  0
  2  1  2  0  0  0  0 
  1  3  1  0  0  0  0 
  4  2  1  0  0  0  0 
  2  5  1  0  0  0  0 
  3  6  2  0  0  0  0 
  7  4  2  0  0  0  0 
  4  8  1  0  0  0  0 
  6  7  1  0  0  0  0 
  6  9  1  0  0  0  0 
  8 10  2  0  0  0  0 
M  END
> <Name>
Benzaldehyde, 2,5-dihydroxy-

> <Source>
NIST2DMolFile

> <Tox>
3.277

> <CAS>
1194-98-5

$$$$

  CDK

 12 12  0  0  0  0  0  0  0  0999 V2000
    2.4953    0.8657    0.0000 C   0  0  0  0  0  0  0  0  0  0  0  0
    1.5277    0.8657    0.0000 C   0  0  0  0  0  0  0  0  0  0  0  0
    3.0046    1.6805    0.0000 C   0  0  0  0  0  0  0  0  0  0  0  0
    1.0185    1.6805    0.0000 C   0  0  0  0  0  0  0  0  0  0  0  0
    1.0185    0.0000    0.0000 N   0  0  0  0  0  0  0  0  0  0  0  0
    2.4953    2.5972    0.0000 C   0  0  0  0  0  0  0  0  0  0  0  0
    4.0231    1.6805    0.0000 C   0  0  0  0  0  0  0  0  0  0  0  0
    1.5277    2.5972    0.0000 C   0  0  0  0  0  0  0  0  0  0  0  0
    0.0000    1.6805    0.0000 O   0  0  0  0  0  0  0  0  0  0  0  0
    5.0416    1.6805    0.0000 C   0  0  0  0  0  0  0  0  0  0  0  0
    4.0231    2.6990    0.0000 C   0  0  0  0  0  0  0  0  0  0  0  0
    4.0231    0.7129    0.0000 C   0  0  0  0  0  0  0  0  0  0  0  0
  2  1  2  0  0  0  0 
  1  3  1  0  0  0  0 
  4  2  1  0  0  0  0 
  2  5  1  0  0  0  0 
  3  6  2  0  0  0  0 
  3  7  1  0  0  0  0 
  8  4  2  0  0  0  0 
  4  9  1  0  0  0  0 
  6  8  1  0  0  0  0 
  7 10  1  0  0  0  0 
  7 11  1  0  0  0  0 
  7 12  1  0  0  0  0 
M  END
> <Name>
2-Amino-4-tert-butylphenol

> <Source>
NIST2DMolFile

> <Tox>
3.370

> <CAS>
1199-46-8

$$$$

  CDK

  5  4  0  0  0  0  0  0  0  0999 V2000
    3.1104    3.3153    0.8929 C   0  0  0  0  0  0  0  0  0  0  0  0
    3.2255    1.8131    0.8753 C   0  0  0  0  0  0  0  0  0  0  0  0
    4.2907    1.2287    0.8383 O   0  0  0  0  0  0  0  0  0  0  0  0
    1.9667    1.1069    0.9060 C   0  0  0  0  0  0  0  0  0  0  0  0
    0.9281    0.5228    0.9314 C   0  0  0  0  0  0  0  0  0  0  0  0
  1  2  1  0  0  0  0 
  2  3  2  0  0  0  0 
  2  4  1  0  0  0  0 
  4  5  3  0  0  0  0 
M  END
> <Name>
but-3-yn-2-one

> <Source>
NIST3DMolFile

> <Tox>
4.960

> <CAS>
1423-60-5

$$$$

  CDK

 10 10  0  0  0  0  0  0  0  0999 V2000
    1.2441   -0.1409    0.8177 O   0  0  0  0  0  0  0  0  0  0  0  0
   -0.0833   -0.0260    0.4608 C   0  0  0  0  0  0  0  0  0  0  0  0
    2.1203    0.0370   -0.2229 C   0  0  0  0  0  0  0  0  0  0  0  0
   -0.7354   -1.3155    0.0528 C   0  0  0  0  0  0  0  0  0  0  0  0
   -0.7399    1.1447    0.4954 C   0  0  0  0  0  0  0  0  0  0  0  0
    1.8479    0.2785   -1.3919 O   0  0  0  0  0  0  0  0  0  0  0  0
    3.5235   -0.0983    0.2916 C   0  0  0  0  0  0  0  0  0  0  0  0
   -2.2639   -1.2314    0.0277 C   0  0  0  0  0  0  0  0  0  0  0  0
   -2.1800    1.2890    0.0992 C   0  0  0  0  0  0  0  0  0  0  0  0
   -2.7333    0.0628   -0.6303 C   0  0  0  0  0  0  0  0  0  0  0  0
  1  2  1  0  0  0  0 
  1  3  1  0  0  0  0 
  4  2  1  0  0  0  0 
  2  5  2  0  0  0  0 
  6  3  2  0  0  0  0 
  3  7  1  0  0  0  0 
  8  4  1  0  0  0  0 
  9  5  1  0  0  0  0 
  8 10  1  0  0  0  0 
 10  9  1  0  0  0  0 
M  END
> <Name>
cyclohexen-1-yl ethanoate

> <Source>
Chemidplus3DMolFile

> <Tox>
2.600

> <CAS>
1424-22-2

$$$$

  CDK

 11 11  0  0  0  0  0  0  0  0999 V2000
   -2.1270    1.8868   -0.0015 F   0  0  0  0  0  0  0  0  0  0  0  0
   -1.3133    0.8216    0.0007 C   0  0  0  0  0  0  0  0  0  0  0  0
   -1.8404   -0.4698    0.0000 C   0  0  0  0  0  0  0  0  0  0  0  0
    0.0686    1.0109    0.0012 C   0  0  0  0  0  0  0  0  0  0  0  0
   -0.9855   -1.5720    0.0000 C   0  0  0  0  0  0  0  0  0  0  0  0
   -3.3175   -0.6760   -0.0002 C   0  0  0  0  0  0  0  0  0  0  0  0
    0.9235   -0.0913    0.0009 C   0  0  0  0  0  0  0  0  0  0  0  0
    0.3964   -1.3828    0.0003 C   0  0  0  0  0  0  0  0  0  0  0  0
    2.3301    0.1022    0.0000 N   0  0  0  0  0  0  0  0  0  0  0  0
    3.0822   -0.9022   -0.0014 O   0  0  0  0  0  0  0  0  0  0  0  0
    2.7830    1.2726    0.0001 O   0  0  0  0  0  0  0  0  0  0  0  0
  1  2  1  0  0  0  0 
  3  2  2  0  0  0  0 
  2  4  1  0  0  0  0 
  3  5  1  0  0  0  0 
  3  6  1  0  0  0  0 
  7  4  2  0  0  0  0 
  5  8  2  0  0  0  0 
  9  7  1  0  0  0  0 
  7  8  1  0  0  0  0 
 10  9  1  0  0  0  0 
 11  9  2  0  0  0  0 
M  CHG  1   9   1
M  CHG  1  10  -1
M  END
> <Name>
2-fluoro-1-methyl-4-nitrobenzene

> <Source>
Chemidplus3DMolFile

> <Tox>
3.330

> <CAS>
1427-07-2

$$$$

  CDK

 11 11  0  0  0  0  0  0  0  0999 V2000
    3.1928   -1.1448    0.0008 O   0  0  0  0  0  0  0  0  0  0  0  0
    2.5613   -0.0693    0.0002 C   0  0  0  0  0  0  0  0  0  0  0  0
    1.1072   -0.0428    0.0007 C   0  0  0  0  0  0  0  0  0  0  0  0
    3.3537    1.2335   -0.0006 C   0  0  0  0  0  0  0  0  0  0  0  0
    0.4316    1.1774    0.0005 C   0  0  0  0  0  0  0  0  0  0  0  0
    0.3883   -1.2381   -0.0001 C   0  0  0  0  0  0  0  0  0  0  0  0
   -0.9631    1.2025   -0.0003 C   0  0  0  0  0  0  0  0  0  0  0  0
   -1.0064   -1.2131   -0.0011 C   0  0  0  0  0  0  0  0  0  0  0  0
   -1.6821    0.0073   -0.0013 C   0  0  0  0  0  0  0  0  0  0  0  0
   -3.1107    0.0332    0.0001 C   0  0  0  0  0  0  0  0  0  0  0  0
   -4.2725    0.0542    0.0011 N   0  0  0  0  0  0  0  0  0  0  0  0
  1  2  2  0  0  0  0 
  3  2  1  0  0  0  0 
  2  4  1  0  0  0  0 
  3  5  2  0  0  0  0 
  3  6  1  0  0  0  0 
  5  7  1  0  0  0  0 
  6  8  2  0  0  0  0 
  7  9  2  0  0  0  0 
  8  9  1  0  0  0  0 
  9 10  1  0  0  0  0 
 11 10  3  0  0  0  0 
M  END
> <Name>
4-acetylbenzonitrile

> <Source>
Chemidplus3DMolFile

> <Tox>
2.630

> <CAS>
1443-80-7

$$$$

  CDK

 11 11  0  0  0  0  0  0  0  0999 V2000
    1.2922   -2.1193   -0.0024 O   0  0  0  0  0  0  0  0  0  0  0  0
    0.2517   -1.2388    0.0009 C   0  0  0  0  0  0  0  0  0  0  0  0
    0.4789    0.1373    0.0010 C   0  0  0  0  0  0  0  0  0  0  0  0
   -1.0537   -1.7302    0.0006 C   0  0  0  0  0  0  0  0  0  0  0  0
   -0.5994    1.0222    0.0008 C   0  0  0  0  0  0  0  0  0  0  0  0
    1.8338    0.6711    0.0001 C   0  0  0  0  0  0  0  0  0  0  0  0
   -2.1320   -0.8455    0.0001 C   0  0  0  0  0  0  0  0  0  0  0  0
   -1.9049    0.5307    0.0003 C   0  0  0  0  0  0  0  0  0  0  0  0
    2.8275   -0.0810    0.0008 O   0  0  0  0  0  0  0  0  0  0  0  0
    2.0645    2.1774   -0.0010 C   0  0  0  0  0  0  0  0  0  0  0  0
   -3.0584    1.4760   -0.0013 C   0  0  0  0  0  0  0  0  0  0  0  0
  1  2  1  0  0  0  0 
  3  2  2  0  0  0  0 
  2  4  1  0  0  0  0 
  3  5  1  0  0  0  0 
  3  6  1  0  0  0  0 
  7  4  2  0  0  0  0 
  8  5  2  0  0  0  0 
  9  6  2  0  0  0  0 
  6 10  1  0  0  0  0 
  8  7  1  0  0  0  0 
  8 11  1  0  0  0  0 
M  END
> <Name>
1-(2-hydroxy-5-methylphenyl)ethanone

> <Source>
Chemidplus3DMolFile

> <Tox>
3.310

> <CAS>
1450-72-2

$$$$

  CDK

  9  9  0  0  0  0  0  0  0  0999 V2000
   -0.2956    0.2898    0.0000 C   0  0  0  0  0  0  0  0  0  0  0  0
   -0.2956    1.1148    0.0000 O   0  0  0  0  0  0  0  0  0  0  0  0
    0.4189   -0.1227    0.0000 C   0  0  0  0  0  0  0  0  0  0  0  0
   -1.0101   -0.1227    0.0000 C   0  0  0  0  0  0  0  0  0  0  0  0
    0.5051   -0.9432    0.0000 C   0  0  0  0  0  0  0  0  0  0  0  0
    1.1725    0.2128    0.0000 C   0  0  0  0  0  0  0  0  0  0  0  0
   -1.7246    0.2898    0.0000 Br  0  0  0  0  0  0  0  0  0  0  0  0
    1.3121   -1.1148    0.0000 S   0  0  0  0  0  0  0  0  0  0  0  0
    1.7246   -0.4003    0.0000 C   0  0  0  0  0  0  0  0  0  0  0  0
  1  2  2  0  0  0  0 
  1  3  1  0  0  0  0 
  1  4  1  0  0  0  0 
  5  3  2  0  0  0  0 
  3  6  1  0  0  0  0 
  4  7  1  0  0  0  0 
  5  8  1  0  0  0  0 
  6  9  2  0  0  0  0 
  9  8  1  0  0  0  0 
M  END
> <Name>
Ketone,bromomethyl 3-thienyl (7CI,8CI)

> <Source>
Name2DMolFile

> <Tox>
5.220

> <CAS>
1468-82-2

$$$$

  CDK

 19 18  0  0  0  0  0  0  0  0999 V2000
    2.5944    1.4968    0.0000 C   0  0  0  0  0  0  0  0  0  0  0  0
    1.7462    0.9978    0.0000 C   0  0  0  0  0  0  0  0  0  0  0  0
    3.4924    0.9978    0.0000 C   0  0  0  0  0  0  0  0  0  0  0  0
    0.8981    1.4968    0.0000 O   0  0  0  0  0  0  0  0  0  0  0  0
    1.7462    0.0000    0.0000 O   0  0  0  0  0  0  0  0  0  0  0  0
    4.3406    1.4968    0.0000 C   0  0  0  0  0  0  0  0  0  0  0  0
    0.0000    0.9978    0.0000 C   0  0  0  0  0  0  0  0  0  0  0  0
    5.1888    0.9978    0.0000 C   0  0  0  0  0  0  0  0  0  0  0  0
    6.0868    1.4968    0.0000 C   0  0  0  0  0  0  0  0  0  0  0  0
    6.9350    0.9978    0.0000 C   0  0  0  0  0  0  0  0  0  0  0  0
    7.7832    1.4968    0.0000 C   0  0  0  0  0  0  0  0  0  0  0  0
    8.6812    0.9978    0.0000 C   0  0  0  0  0  0  0  0  0  0  0  0
    9.5294    1.4968    0.0000 C   0  0  0  0  0  0  0  0  0  0  0  0
   10.3776    0.9978    0.0000 C   0  0  0  0  0  0  0  0  0  0  0  0
   11.2756    1.4968    0.0000 C   0  0  0  0  0  0  0  0  0  0  0  0
   12.1238    0.9978    0.0000 C   0  0  0  0  0  0  0  0  0  0  0  0
   12.9720    1.4968    0.0000 O   0  0  0  0  0  0  0  0  0  0  0  0
   12.1238    0.0000    0.0000 O   0  0  0  0  0  0  0  0  0  0  0  0
   13.8700    0.9978    0.0000 C   0  0  0  0  0  0  0  0  0  0  0  0
  1  2  1  0  0  0  0 
  1  3  1  0  0  0  0 
  2  4  1  0  0  0  0 
  2  5  2  0  0  0  0 
  3  6  1  0  0  0  0 
  4  7  1  0  0  0  0 
  6  8  1  0  0  0  0 
  8  9  1  0  0  0  0 
  9 10  1  0  0  0  0 
 10 11  1  0  0  0  0 
 11 12  1  0  0  0  0 
 12 13  1  0  0  0  0 
 13 14  1  0  0  0  0 
 14 15  1  0  0  0  0 
 15 16  1  0  0  0  0 
 16 17  1  0  0  0  0 
 16 18  2  0  0  0  0 
 17 19  1  0  0  0  0 
M  END
> <Name>
Tridecanedioic acid, dimethyl ester

> <Source>
NIST2DMolFile

> <Tox>
4.654

> <CAS>
1472-87-3

$$$$

  CDK

  6  5  0  0  0  0  0  0  0  0999 V2000
    1.3291   -0.0000    0.0000 C   0  0  0  0  0  0  0  0  0  0  0  0
    2.0042   -1.1536    0.0000 C   0  0  0  0  0  0  0  0  0  0  0  0
    0.0000   -0.0000    0.0000 Cl  0  0  0  0  0  0  0  0  0  0  0  0
    3.3333   -1.1536    0.0000 C   0  0  0  0  0  0  0  0  0  0  0  0
    3.9872   -0.0000    0.0000 C   0  0  0  0  0  0  0  0  0  0  0  0
    5.3163   -0.0000    0.0000 Cl  0  0  0  0  0  0  0  0  0  0  0  0
  1  2  1  0  0  0  0 
  1  3  1  0  0  0  0 
  2  4  2  0  0  0  0 
  4  5  1  0  0  0  0 
  5  6  1  0  0  0  0 
M  END
> <Name>
(Z)-1,4-dichlorobut-2-ene

> <Source>
DSSTox2DMolFile

> <Tox>
4.022

> <CAS>
1476-11-5

$$$$

  CDK

 15 17  0  0  0  0  0  0  0  0999 V2000
    6.2121   -3.9695    0.0000 C   0  0  0  0  0  0  0  0  0  0  0  0
    5.4293   -5.0442    0.0000 C   0  0  0  0  0  0  0  0  0  0  0  0
    5.6716   -2.7519    0.0000 C   0  0  0  0  0  0  0  0  0  0  0  0
    4.1062   -4.9075    0.0000 C   0  0  0  0  0  0  0  0  0  0  0  0
    4.3484   -2.6153    0.0000 C   0  0  0  0  0  0  0  0  0  0  0  0
    3.5657   -3.6900    0.0000 C   0  0  0  0  0  0  0  0  0  0  0  0
    3.5657   -1.5406    0.0000 N   0  0  0  0  0  0  0  0  0  0  0  0
    2.3047   -3.2800    0.0000 C   0  0  0  0  0  0  0  0  0  0  0  0
    2.3047   -1.9506    0.0000 C   0  0  0  0  0  0  0  0  0  0  0  0
    3.9757   -0.2733    0.0000 C   0  0  0  0  0  0  0  0  0  0  0  0
    1.1492   -3.9447    0.0000 C   0  0  0  0  0  0  0  0  0  0  0  0
    1.1492   -1.2859    0.0000 C   0  0  0  0  0  0  0  0  0  0  0  0
    5.2803   -0.0000    0.0000 C   0  0  0  0  0  0  0  0  0  0  0  0
    0.0000   -3.2800    0.0000 C   0  0  0  0  0  0  0  0  0  0  0  0
    0.0000   -1.9506    0.0000 C   0  0  0  0  0  0  0  0  0  0  0  0
  1  2  2  0  0  0  0 
  1  3  1  0  0  0  0 
  2  4  1  0  0  0  0 
  3  5  2  0  0  0  0 
  4  6  2  0  0  0  0 
  6  5  1  0  0  0  0 
  5  7  1  0  0  0  0 
  6  8  1  0  0  0  0 
  7  9  1  0  0  0  0 
  7 10  1  0  0  0  0 
  8 11  2  0  0  0  0 
  8  9  1  0  0  0  0 
  9 12  2  0  0  0  0 
 10 13  2  0  0  0  0 
 11 14  1  0  0  0  0 
 12 15  1  0  0  0  0 
 14 15  2  0  0  0  0 
M  END
> <Name>
9H-Carbazole, 9-ethenyl-

> <Source>
DSSTox2DMolFile

> <Tox>
5.240

> <CAS>
1484-13-5

$$$$

  CDK

 15 16  0  0  0  0  0  0  0  0999 V2000
    2.3040   -2.6542    0.0000 C   0  0  0  0  0  0  0  0  0  0  0  0
    1.1520   -1.9906    0.0000 C   0  0  0  0  0  0  0  0  0  0  0  0
    3.4560   -1.9906    0.0000 C   0  0  0  0  0  0  0  0  0  0  0  0
    0.0000   -2.6542    0.0000 N   0  0  0  0  0  0  0  0  0  0  0  0
    1.1520   -0.6635    0.0000 C   0  0  0  0  0  0  0  0  0  0  0  0
    3.4560   -0.6635    0.0000 C   0  0  0  0  0  0  0  0  0  0  0  0
    4.6080   -2.6542    0.0000 O   0  0  0  0  0  0  0  0  0  0  0  0
    2.3040   -0.0000    0.0000 C   0  0  0  0  0  0  0  0  0  0  0  0
    5.7600   -1.9906    0.0000 C   0  0  0  0  0  0  0  0  0  0  0  0
    6.9120   -2.6542    0.0000 C   0  0  0  0  0  0  0  0  0  0  0  0
    8.0640   -1.9906    0.0000 C   0  0  0  0  0  0  0  0  0  0  0  0
    6.9120   -3.9905    0.0000 C   0  0  0  0  0  0  0  0  0  0  0  0
    9.2160   -2.6542    0.0000 C   0  0  0  0  0  0  0  0  0  0  0  0
    8.0640   -4.6541    0.0000 C   0  0  0  0  0  0  0  0  0  0  0  0
    9.2160   -3.9905    0.0000 C   0  0  0  0  0  0  0  0  0  0  0  0
  1  2  2  0  0  0  0 
  1  3  1  0  0  0  0 
  2  4  1  0  0  0  0 
  2  5  1  0  0  0  0 
  6  3  2  0  0  0  0 
  3  7  1  0  0  0  0 
  5  8  2  0  0  0  0 
  8  6  1  0  0  0  0 
  7  9  1  0  0  0  0 
  9 10  1  0  0  0  0 
 10 11  2  0  0  0  0 
 10 12  1  0  0  0  0 
 11 13  1  0  0  0  0 
 14 12  2  0  0  0  0 
 13 15  2  0  0  0  0 
 15 14  1  0  0  0  0 
M  END
> <Name>
Benzenamine, 3-(phenylmethoxy)-

> <Source>
DSSTox2DMolFile

> <Tox>
3.880

> <CAS>
1484-26-0

$$$$

  CDK

 10 10  0  0  0  0  0  0  0  0999 V2000
    0.5074    0.0000    0.0000 C   0  0  0  0  0  0  0  0  0  0  0  0
    0.0000    0.8626    0.0000 C   0  0  0  0  0  0  0  0  0  0  0  0
    1.5222    0.0000    0.0000 C   0  0  0  0  0  0  0  0  0  0  0  0
    0.5074    1.7251    0.0000 C   0  0  0  0  0  0  0  0  0  0  0  0
    2.0296    0.8626    0.0000 C   0  0  0  0  0  0  0  0  0  0  0  0
    1.5222    1.7251    0.0000 C   0  0  0  0  0  0  0  0  0  0  0  0
    3.0444    0.8626    0.0000 N   0  0  0  0  0  0  0  0  0  0  0  0
    2.0296    2.5877    0.0000 F   0  0  0  0  0  0  0  0  0  0  0  0
    3.5010    0.0000    0.0000 O   0  0  0  0  0  0  0  0  0  0  0  0
    3.5010    1.7251    0.0000 O   0  0  0  0  0  0  0  0  0  0  0  0
  1  2  2  0  0  0  0 
  3  1  1  0  0  0  0 
  2  4  1  0  0  0  0 
  5  3  2  0  0  0  0 
  4  6  2  0  0  0  0 
  6  5  1  0  0  0  0 
  5  7  1  0  0  0  0 
  6  8  1  0  0  0  0 
  7  9  2  0  0  0  0 
  7 10  2  0  0  0  0 
M  END
> <Name>
Benzene, 1-fluoro-2-nitro-

> <Source>
NIST2DMolFile

> <Tox>
3.230

> <CAS>
1493-27-2

$$$$

  CDK

 10 10  0  0  0  0  0  0  0  0999 V2000
    4.2392   -0.7832   -0.0316 O   0  0  0  0  0  0  0  0  0  0  0  0
    3.6263    0.4974    0.0177 C   0  0  0  0  0  0  0  0  0  0  0  0
    2.1717    0.3487    0.0124 C   0  0  0  0  0  0  0  0  0  0  0  0
    0.9748    0.2292    0.0081 C   0  0  0  0  0  0  0  0  0  0  0  0
   -0.4472    0.0886    0.0034 C   0  0  0  0  0  0  0  0  0  0  0  0
   -1.2602    1.2220   -0.0076 C   0  0  0  0  0  0  0  0  0  0  0  0
   -1.0224   -1.1823    0.0099 C   0  0  0  0  0  0  0  0  0  0  0  0
   -2.6483    1.0848   -0.0121 C   0  0  0  0  0  0  0  0  0  0  0  0
   -2.4106   -1.3194    0.0053 C   0  0  0  0  0  0  0  0  0  0  0  0
   -3.2234   -0.1858   -0.0056 C   0  0  0  0  0  0  0  0  0  0  0  0
  1  2  1  0  0  0  0 
  2  3  1  0  0  0  0 
  4  3  3  0  0  0  0 
  5  4  1  0  0  0  0 
  5  6  2  0  0  0  0 
  5  7  1  0  0  0  0 
  6  8  1  0  0  0  0 
  7  9  2  0  0  0  0 
  8 10  2  0  0  0  0 
  9 10  1  0  0  0  0 
M  END
> <Name>
3-phenylprop-2-yn-1-ol

> <Source>
Chemidplus3DMolFile

> <Tox>
3.070

> <CAS>
1504-58-1

$$$$

  CDK

  8  7  0  0  0  0  0  0  0  0999 V2000
    0.0000    0.0000    0.0000 C   0  0  0  0  0  0  0  0  0  0  0  0
    1.4800    0.3600   -0.0800 C   0  0  0  0  0  0  0  0  0  0  0  0
   -0.9000    1.1000   -0.5800 C   0  0  0  0  0  0  0  0  0  0  0  0
    1.8400    1.3400    0.9600 N   0  0  0  0  0  0  0  0  0  0  0  0
   -1.7600    0.6000   -1.7400 C   0  0  0  0  0  0  0  0  0  0  0  0
    2.2400    0.9000    2.1800 C   0  0  0  0  0  0  0  0  0  0  0  0
    2.5600    1.9400    3.0200 N   0  0  0  0  0  0  0  0  0  0  0  0
    2.3600   -0.7200    2.6200 S   0  0  0  0  0  0  0  0  0  0  0  0
  1  2  1  0  0  0  0 
  1  3  1  0  0  0  0 
  2  4  1  0  0  0  0 
  3  5  1  0  0  0  0 
  4  6  1  0  0  0  0 
  6  7  1  0  0  0  0 
  6  8  2  0  0  0  0 
M  END
> <Name>
Urea, 1-butyl-2-thio-

> <Source>
NIH3DMolFile

> <Tox>
2.810

> <CAS>
1516-32-1

$$$$

  CDK

 10 10  0  0  0  0  0  0  0  0999 V2000
    0.0000    2.6641    0.0000 N   0  0  0  0  0  0  0  0  0  0  0  0
    1.0053    2.6641    0.0000 C   0  0  0  0  0  0  0  0  0  0  0  0
    2.0106    2.6641    0.0000 C   0  0  0  0  0  0  0  0  0  0  0  0
    2.5133    1.7593    0.0000 C   0  0  0  0  0  0  0  0  0  0  0  0
    2.5133    3.5186    0.0000 C   0  0  0  0  0  0  0  0  0  0  0  0
    3.4683    1.7593    0.0000 C   0  0  0  0  0  0  0  0  0  0  0  0
    3.4683    3.5186    0.0000 C   0  0  0  0  0  0  0  0  0  0  0  0
    3.9710    0.9048    0.0000 O   0  0  0  0  0  0  0  0  0  0  0  0
    3.9710    2.6641    0.0000 C   0  0  0  0  0  0  0  0  0  0  0  0
    3.4683    0.0000    0.0000 C   0  0  0  0  0  0  0  0  0  0  0  0
  1  2  3  0  0  0  0 
  2  3  1  0  0  0  0 
  3  4  2  0  0  0  0 
  5  3  1  0  0  0  0 
  4  6  1  0  0  0  0 
  7  5  2  0  0  0  0 
  6  8  1  0  0  0  0 
  6  9  2  0  0  0  0 
  9  7  1  0  0  0  0 
  8 10  1  0  0  0  0 
M  END
> <Name>
m-Anisonitrile (8CI)

> <Source>
NIST2DMolFile

> <Tox>
3.010

> <CAS>
1527-89-5

$$$$

  CDK

 11 11  0  0  0  0  0  0  0  0999 V2000
    1.2911   -0.3672    0.2482 C   0  0  0  0  0  0  0  0  0  0  0  0
   -0.2175   -0.1707    0.1515 C   0  0  0  0  0  0  0  0  0  0  0  0
    1.6183   -1.8666    0.3893 C   0  0  0  0  0  0  0  0  0  0  0  0
    1.9734    0.1793   -1.0276 C   0  0  0  0  0  0  0  0  0  0  0  0
    1.8584    0.3361    1.3463 O   0  0  0  0  0  0  0  0  0  0  0  0
   -0.8506    0.9233    0.7429 C   0  0  0  0  0  0  0  0  0  0  0  0
   -0.9832   -1.0849   -0.5768 C   0  0  0  0  0  0  0  0  0  0  0  0
    1.7699    1.6604   -1.2492 C   0  0  0  0  0  0  0  0  0  0  0  0
   -2.2271    1.0868    0.6221 C   0  0  0  0  0  0  0  0  0  0  0  0
   -2.3563   -0.9183   -0.7000 C   0  0  0  0  0  0  0  0  0  0  0  0
   -2.9823    0.1677   -0.0967 C   0  0  0  0  0  0  0  0  0  0  0  0
  1  2  1  0  0  0  0 
  1  3  1  0  0  0  0 
  1  4  1  0  0  0  0 
  1  5  1  0  0  0  0 
  2  6  1  0  0  0  0 
  2  7  2  0  0  0  0 
  4  8  1  0  0  0  0 
  6  9  2  0  0  0  0 
 10  7  1  0  0  0  0 
  9 11  1  0  0  0  0 
 11 10  2  0  0  0  0 
M  END
> <Name>
Benzenemethanol, alpha-ethyl-alpha-methyl-

> <Source>
DougDB3DMolFile

> <Tox>
3.060

> <CAS>
1565-75-9

$$$$

  CDK

  6  5  0  0  0  0  0  0  0  0999 V2000
    2.9203    1.5686    2.3520 C   0  0  0  0  0  0  0  0  0  0  0  0
    3.6708    0.9212    3.4861 C   0  0  0  0  0  0  0  0  0  0  0  0
    1.7437    1.1140    1.9212 C   0  0  0  0  0  0  0  0  0  0  0  0
    3.8117    1.9040    4.6450 C   0  0  0  0  0  0  0  0  0  0  0  0
    4.9824    0.5572    3.0884 O   0  0  0  0  0  0  0  0  0  0  0  0
    0.9893    1.7449    0.8163 C   0  0  0  0  0  0  0  0  0  0  0  0
  1  2  1  0  0  0  0 
  1  3  2  0  0  0  0 
  2  4  1  0  0  0  0 
  2  5  1  0  0  0  0 
  3  6  1  0  0  0  0 
M  END
> <Name>
3-Penten-2-ol

> <Source>
NIST3DMolFile

> <Tox>
1.599

> <CAS>
1569-50-2

$$$$

  CDK

  7  7  0  0  0  0  0  0  0  0999 V2000
    1.1527   -1.3282    0.0000 C   0  0  0  0  0  0  0  0  0  0  0  0
    2.3054   -2.0023    0.0000 C   0  0  0  0  0  0  0  0  0  0  0  0
    0.0000   -2.0023    0.0000 C   0  0  0  0  0  0  0  0  0  0  0  0
    1.1527   -0.0000    0.0000 S   0  0  0  0  0  0  0  0  0  0  0  0
    2.3054   -3.3305    0.0000 C   0  0  0  0  0  0  0  0  0  0  0  0
    0.0000   -3.3305    0.0000 C   0  0  0  0  0  0  0  0  0  0  0  0
    1.1527   -3.9886    0.0000 C   0  0  0  0  0  0  0  0  0  0  0  0
  1  2  1  0  0  0  0 
  1  3  1  0  0  0  0 
  1  4  1  0  0  0  0 
  2  5  1  0  0  0  0 
  6  3  1  0  0  0  0 
  5  7  1  0  0  0  0 
  7  6  1  0  0  0  0 
M  END
> <Name>
Cyclohexanethiol

> <Source>
DSSTox2DMolFile

> <Tox>
2.996

> <CAS>
1569-69-3

$$$$

  CDK

  9  9  0  0  0  0  0  0  0  0999 V2000
    1.1520   -1.9953    0.0000 C   0  0  0  0  0  0  0  0  0  0  0  0
    1.1520   -0.6636    0.0000 C   0  0  0  0  0  0  0  0  0  0  0  0
    2.3041   -2.6589    0.0000 C   0  0  0  0  0  0  0  0  0  0  0  0
    0.0000   -2.6589    0.0000 C   0  0  0  0  0  0  0  0  0  0  0  0
    2.3041   -0.0000    0.0000 C   0  0  0  0  0  0  0  0  0  0  0  0
    0.0000   -0.0000    0.0000 O   0  0  0  0  0  0  0  0  0  0  0  0
    3.4561   -1.9953    0.0000 C   0  0  0  0  0  0  0  0  0  0  0  0
    3.4561   -0.6636    0.0000 C   0  0  0  0  0  0  0  0  0  0  0  0
    4.6082   -2.6589    0.0000 Cl  0  0  0  0  0  0  0  0  0  0  0  0
  1  2  2  0  0  0  0 
  1  3  1  0  0  0  0 
  1  4  1  0  0  0  0 
  2  5  1  0  0  0  0 
  2  6  1  0  0  0  0 
  7  3  2  0  0  0  0 
  5  8  2  0  0  0  0 
  8  7  1  0  0  0  0 
  7  9  1  0  0  0  0 
M  END
> <Name>
Phenol, 4-chloro-2-methyl-

> <Source>
DSSTox2DMolFile

> <Tox>
3.700

> <CAS>
1570-64-5

$$$$

  CDK

 12 12  0  0  0  0  0  0  0  0999 V2000
    0.0000   -2.3040    0.0000 C   0  0  0  0  0  0  0  0  0  0  0  0
    1.3314   -2.3040    0.0000 O   0  0  0  0  0  0  0  0  0  0  0  0
    1.9931   -1.1560    0.0000 C   0  0  0  0  0  0  0  0  0  0  0  0
    1.3314   -0.0000    0.0000 O   0  0  0  0  0  0  0  0  0  0  0  0
    3.3245   -1.1560    0.0000 C   0  0  0  0  0  0  0  0  0  0  0  0
    3.9862   -0.0000    0.0000 C   0  0  0  0  0  0  0  0  0  0  0  0
    3.9862   -2.3040    0.0000 C   0  0  0  0  0  0  0  0  0  0  0  0
    5.3175   -0.0000    0.0000 C   0  0  0  0  0  0  0  0  0  0  0  0
    5.3175   -2.3040    0.0000 C   0  0  0  0  0  0  0  0  0  0  0  0
    5.9793   -1.1560    0.0000 C   0  0  0  0  0  0  0  0  0  0  0  0
    7.3106   -1.1560    0.0000 C   0  0  0  0  0  0  0  0  0  0  0  0
    7.9723   -0.0000    0.0000 O   0  0  0  0  0  0  0  0  0  0  0  0
  1  2  1  0  0  0  0 
  2  3  1  0  0  0  0 
  3  4  2  0  0  0  0 
  3  5  1  0  0  0  0 
  5  6  2  0  0  0  0 
  5  7  1  0  0  0  0 
  6  8  1  0  0  0  0 
  9  7  2  0  0  0  0 
  8 10  2  0  0  0  0 
 10  9  1  0  0  0  0 
 10 11  1  0  0  0  0 
 11 12  2  0  0  0  0 
M  END
> <Name>
Benzoic acid, 4-formyl-, methyl ester

> <Source>
DSSTox2DMolFile

> <Tox>
3.300

> <CAS>
1571-08-0

$$$$

  CDK

  6  5  0  0  0  0  0  0  0  0999 V2000
    0.9199    1.0399    2.6842 C   0  0  0  0  0  0  0  0  0  0  0  0
    2.0046    1.1063    1.6329 C   0  0  0  0  0  0  0  0  0  0  0  0
    2.3484    2.5107    1.2841 C   0  0  0  0  0  0  0  0  0  0  0  0
    3.5863    2.9314    1.0163 C   0  0  0  0  0  0  0  0  0  0  0  0
    4.7729    2.0238    1.0184 C   0  0  0  0  0  0  0  0  0  0  0  0
    5.8969    2.7739    1.4200 O   0  0  0  0  0  0  0  0  0  0  0  0
  1  2  1  0  0  0  0 
  2  3  1  0  0  0  0 
  3  4  2  0  0  0  0 
  4  5  1  0  0  0  0 
  5  6  1  0  0  0  0 
M  END
> <Name>
2-Penten-1-ol, (2Z)-

> <Source>
NIST3DMolFile

> <Tox>
1.895

> <CAS>
1576-95-0

$$$$

  CDK

  8  7  0  0  0  0  0  0  0  0999 V2000
    2.7574    0.9226    2.0313 C   0  0  0  0  0  0  0  0  0  0  0  0
    3.7621    2.0156    2.1412 C   0  0  0  0  0  0  0  0  0  0  0  0
    1.6001    1.3617    1.1667 C   0  0  0  0  0  0  0  0  0  0  0  0
    5.0070    1.8939    1.6786 C   0  0  0  0  0  0  0  0  0  0  0  0
    0.6837    2.1522    1.7740 O   0  0  0  0  0  0  0  0  0  0  0  0
    1.3771    1.0944    0.0000 O   0  0  0  0  0  0  0  0  0  0  0  0
    6.0221    2.9751    1.8007 C   0  0  0  0  0  0  0  0  0  0  0  0
    7.2014    2.5176    2.6327 C   0  0  0  0  0  0  0  0  0  0  0  0
  1  2  1  0  0  0  0 
  1  3  1  0  0  0  0 
  2  4  2  0  0  0  0 
  3  5  1  0  0  0  0 
  3  6  2  0  0  0  0 
  4  7  1  0  0  0  0 
  7  8  1  0  0  0  0 
M  END
> <Name>
3-Hexenoic acid, (3E)-

> <Source>
NIST3DMolFile

> <Tox>
2.778

> <CAS>
1577-18-0

$$$$

  CDK

  9  9  0  0  0  0  0  0  0  0999 V2000
    4.6417   -1.1529    0.0000 C   0  0  0  0  0  0  0  0  0  0  0  0
    3.9905   -2.3059    0.0000 C   0  0  0  0  0  0  0  0  0  0  0  0
    3.9905   -0.0000    0.0000 C   0  0  0  0  0  0  0  0  0  0  0  0
    5.9738   -1.1529    0.0000 Br  0  0  0  0  0  0  0  0  0  0  0  0
    2.6583   -2.3059    0.0000 C   0  0  0  0  0  0  0  0  0  0  0  0
    2.6583   -0.0000    0.0000 C   0  0  0  0  0  0  0  0  0  0  0  0
    1.9833   -1.1529    0.0000 C   0  0  0  0  0  0  0  0  0  0  0  0
    0.6571   -1.1529    0.0000 C   0  0  0  0  0  0  0  0  0  0  0  0
    0.0000   -2.3059    0.0000 C   0  0  0  0  0  0  0  0  0  0  0  0
  1  2  2  0  0  0  0 
  1  3  1  0  0  0  0 
  1  4  1  0  0  0  0 
  2  5  1  0  0  0  0 
  6  3  2  0  0  0  0 
  5  7  2  0  0  0  0 
  7  6  1  0  0  0  0 
  7  8  1  0  0  0  0 
  8  9  1  0  0  0  0 
M  END
> <Name>
Benzene, 1-bromo-4-ethyl-

> <Source>
DSSTox2DMolFile

> <Tox>
3.670

> <CAS>
1585-07-5

$$$$

  CDK

 12 13  0  0  0  0  0  0  0  0999 V2000
   -3.8062   -0.6289   -0.8596 O   0  0  0  0  0  0  0  0  0  0  0  0
   -3.2386   -0.4059    0.4252 C   0  0  0  0  0  0  0  0  0  0  0  0
   -1.8138    0.0085    0.2720 C   0  0  0  0  0  0  0  0  0  0  0  0
   -0.8057   -0.9558    0.2489 C   0  0  0  0  0  0  0  0  0  0  0  0
   -1.4911    1.3569    0.1510 C   0  0  0  0  0  0  0  0  0  0  0  0
    0.5405   -0.5822    0.1048 C   0  0  0  0  0  0  0  0  0  0  0  0
   -0.1590    1.7461    0.0069 C   0  0  0  0  0  0  0  0  0  0  0  0
    0.8686    0.7889   -0.0179 C   0  0  0  0  0  0  0  0  0  0  0  0
    1.5680   -1.5391    0.0797 C   0  0  0  0  0  0  0  0  0  0  0  0
    2.2145    1.1628   -0.1622 C   0  0  0  0  0  0  0  0  0  0  0  0
    2.9000   -1.1498   -0.0642 C   0  0  0  0  0  0  0  0  0  0  0  0
    3.2227    0.1986   -0.1848 C   0  0  0  0  0  0  0  0  0  0  0  0
  1  2  1  0  0  0  0 
  3  2  1  0  0  0  0 
  3  4  2  0  0  0  0 
  3  5  1  0  0  0  0 
  6  4  1  0  0  0  0 
  7  5  2  0  0  0  0 
  6  8  1  0  0  0  0 
  6  9  2  0  0  0  0 
  8  7  1  0  0  0  0 
  8 10  2  0  0  0  0 
  9 11  1  0  0  0  0 
 10 12  1  0  0  0  0 
 11 12  2  0  0  0  0 
M  END
> <Name>
naphthalen-2-ylmethanol

> <Source>
Chemidplus3DMolFile

> <Tox>
3.390

> <CAS>
1592-38-7

$$$$

  CDK

  5  4  0  0  0  0  0  0  0  0999 V2000
    2.5988    1.9991    0.0000 N   0  0  0  0  0  0  0  0  0  0  0  0
    1.6992    1.4993    0.0000 C   0  0  0  0  0  0  0  0  0  0  0  0
    0.8496    0.9995    0.0000 C   0  0  0  0  0  0  0  0  0  0  0  0
    0.8496    0.0000    0.0000 Cl  0  0  0  0  0  0  0  0  0  0  0  0
    0.0000    1.4993    0.0000 C   0  0  0  0  0  0  0  0  0  0  0  0
  1  2  3  0  0  0  0 
  2  3  1  0  0  0  0 
  3  4  1  0  0  0  0 
  3  5  1  0  0  0  0 
M  END
> <Name>
2-Chloropropionitrile

> <Source>
NIST2DMolFile

> <Tox>
2.137

> <CAS>
1617-17-0

$$$$

  CDK

  6  5  0  0  0  0  0  0  0  0999 V2000
    1.9952   -1.1492    0.0000 C   0  0  0  0  0  0  0  0  0  0  0  0
    2.6616   -0.0000    0.0000 O   0  0  0  0  0  0  0  0  0  0  0  0
    2.6616   -2.3025    0.0000 C   0  0  0  0  0  0  0  0  0  0  0  0
    0.6664   -1.1492    0.0000 C   0  0  0  0  0  0  0  0  0  0  0  0
    3.9905   -2.3025    0.0000 C   0  0  0  0  0  0  0  0  0  0  0  0
    0.0000   -2.3025    0.0000 C   0  0  0  0  0  0  0  0  0  0  0  0
  1  2  2  0  0  0  0 
  1  3  1  0  0  0  0 
  1  4  1  0  0  0  0 
  3  5  1  0  0  0  0 
  4  6  2  0  0  0  0 
M  END
> <Name>
Ethyl vinyl ketone

> <Source>
DSSTox2DMolFile

> <Tox>
4.520

> <CAS>
1629-58-9

$$$$

  CDK

  7  6  0  0  0  0  0  0  0  0999 V2000
    0.6575    1.3692    0.0084 O   0  0  0  0  0  0  0  0  0  0  0  0
    0.5661    0.1446    0.0032 C   0  0  0  0  0  0  0  0  0  0  0  0
   -0.7669   -0.5834    0.0028 C   0  0  0  0  0  0  0  0  0  0  0  0
    1.7725   -0.7298   -0.0023 C   0  0  0  0  0  0  0  0  0  0  0  0
   -1.9538    0.3765   -0.0217 C   0  0  0  0  0  0  0  0  0  0  0  0
    3.0012   -0.2057   -0.0019 C   0  0  0  0  0  0  0  0  0  0  0  0
   -3.2765   -0.3714    0.0116 C   0  0  0  0  0  0  0  0  0  0  0  0
  1  2  2  0  0  0  0 
  3  2  1  0  0  0  0 
  2  4  1  0  0  0  0 
  5  3  1  0  0  0  0 
  4  6  2  0  0  0  0 
  5  7  1  0  0  0  0 
M  END
> <Name>
hex-1-en-3-one

> <Source>
Chemidplus3DMolFile

> <Tox>
4.660

> <CAS>
1629-60-3

$$$$

  CDK

  8  7  0  0  0  0  0  0  0  0999 V2000
    0.0000    0.0000    0.0000 C   0  0  0  0  0  0  0  0  0  0  0  0
    0.8723    0.4618    0.0000 C   0  0  0  0  0  0  0  0  0  0  0  0
    1.7445    0.0000    0.0000 C   0  0  0  0  0  0  0  0  0  0  0  0
    2.6681    0.4618    0.0000 C   0  0  0  0  0  0  0  0  0  0  0  0
    3.5404    0.0000    0.0000 C   0  0  0  0  0  0  0  0  0  0  0  0
    4.4640    0.4618    0.0000 C   0  0  0  0  0  0  0  0  0  0  0  0
    5.3362    0.0000    0.0000 C   0  0  0  0  0  0  0  0  0  0  0  0
    6.2085    0.4618    0.0000 S   0  0  0  0  0  0  0  0  0  0  0  0
  1  2  1  0  0  0  0 
  2  3  1  0  0  0  0 
  3  4  1  0  0  0  0 
  4  5  1  0  0  0  0 
  5  6  1  0  0  0  0 
  6  7  1  0  0  0  0 
  7  8  1  0  0  0  0 
M  END
> <Name>
1-Heptanethiol

> <Source>
NIST2DMolFile

> <Tox>
4.020

> <CAS>
1639-09-4

$$$$

  CDK

 12 11  0  0  0  0  0  0  0  0999 V2000
    3.4548    4.5071    4.4139 C   0  0  0  0  0  0  0  0  0  0  0  0
    3.8271    4.0263    3.0201 C   0  0  0  0  0  0  0  0  0  0  0  0
    1.9854    4.2662    4.7128 C   0  0  0  0  0  0  0  0  0  0  0  0
    5.3310    4.0871    2.7962 C   0  0  0  0  0  0  0  0  0  0  0  0
    1.5521    4.8278    6.0582 C   0  0  0  0  0  0  0  0  0  0  0  0
    6.0578    3.0792    3.6771 C   0  0  0  0  0  0  0  0  0  0  0  0
    1.9511    3.9473    7.2564 C   0  0  0  0  0  0  0  0  0  0  0  0
    5.7614    1.6367    3.2878 C   0  0  0  0  0  0  0  0  0  0  0  0
    1.0419    4.2414    8.4507 C   0  0  0  0  0  0  0  0  0  0  0  0
    3.3103    4.0754    7.6089 O   0  0  0  0  0  0  0  0  0  0  0  0
    6.6358    1.1050    2.1610 C   0  0  0  0  0  0  0  0  0  0  0  0
    6.1346    1.4950    0.7882 C   0  0  0  0  0  0  0  0  0  0  0  0
  1  2  1  0  0  0  0 
  1  3  1  0  0  0  0 
  2  4  1  0  0  0  0 
  3  5  1  0  0  0  0 
  4  6  1  0  0  0  0 
  5  7  1  0  0  0  0 
  6  8  1  0  0  0  0 
  7  9  1  0  0  0  0 
  7 10  1  0  0  0  0 
  8 11  1  0  0  0  0 
 11 12  1  0  0  0  0 
M  END
> <Name>
undecan-2-ol

> <Source>
NIST3DMolFile

> <Tox>
4.580

> <CAS>
1653-30-1

$$$$

  CDK

 14 13  0  0  0  0  0  0  0  0999 V2000
   -6.0580    1.3037    0.4394 O   0  0  0  0  0  0  0  0  0  0  0  0
   -5.9054    0.1000   -0.3074 C   0  0  0  0  0  0  0  0  0  0  0  0
   -4.5865   -0.5745    0.0871 C   0  0  0  0  0  0  0  0  0  0  0  0
   -7.1270   -0.7837   -0.0948 C   0  0  0  0  0  0  0  0  0  0  0  0
   -3.3374    0.2703   -0.1901 C   0  0  0  0  0  0  0  0  0  0  0  0
   -2.0612   -0.4993    0.1597 C   0  0  0  0  0  0  0  0  0  0  0  0
   -0.8112    0.3276   -0.1464 C   0  0  0  0  0  0  0  0  0  0  0  0
    0.4653   -0.4545    0.1720 C   0  0  0  0  0  0  0  0  0  0  0  0
    1.7140    0.3628   -0.1664 C   0  0  0  0  0  0  0  0  0  0  0  0
    3.0229   -0.3847    0.1041 C   0  0  0  0  0  0  0  0  0  0  0  0
    4.2719    0.4577   -0.1643 C   0  0  0  0  0  0  0  0  0  0  0  0
    5.5479   -0.3417    0.1099 C   0  0  0  0  0  0  0  0  0  0  0  0
    6.7972    0.5084   -0.1208 C   0  0  0  0  0  0  0  0  0  0  0  0
    8.0675   -0.2921    0.1179 C   0  0  0  0  0  0  0  0  0  0  0  0
  1  2  1  0  0  0  0 
  3  2  1  0  0  0  0 
  2  4  1  0  0  0  0 
  5  3  1  0  0  0  0 
  6  5  1  0  0  0  0 
  7  6  1  0  0  0  0 
  8  7  1  0  0  0  0 
  8  9  1  0  0  0  0 
  9 10  1  0  0  0  0 
 10 11  1  0  0  0  0 
 11 12  1  0  0  0  0 
 12 13  1  0  0  0  0 
 13 14  1  0  0  0  0 
M  END
> <Name>
tridecan-2-ol

> <Source>
Chemidplus3DMolFile

> <Tox>
5.170

> <CAS>
1653-31-2

$$$$

  CDK

  9  8  0  0  0  0  0  0  0  0999 V2000
    3.4509   -1.3286    0.0000 C   0  0  0  0  0  0  0  0  0  0  0  0
    4.6012   -2.0015    0.0000 C   0  0  0  0  0  0  0  0  0  0  0  0
    2.3006   -2.0015    0.0000 O   0  0  0  0  0  0  0  0  0  0  0  0
    3.4509   -0.0000    0.0000 O   0  0  0  0  0  0  0  0  0  0  0  0
    5.7515   -1.3286    0.0000 C   0  0  0  0  0  0  0  0  0  0  0  0
    1.1503   -1.3286    0.0000 C   0  0  0  0  0  0  0  0  0  0  0  0
    0.4946   -2.4789    0.0000 C   0  0  0  0  0  0  0  0  0  0  0  0
    1.8232   -0.1783    0.0000 C   0  0  0  0  0  0  0  0  0  0  0  0
    0.0000   -0.6729    0.0000 C   0  0  0  0  0  0  0  0  0  0  0  0
  1  2  1  0  0  0  0 
  1  3  1  0  0  0  0 
  1  4  2  0  0  0  0 
  2  5  2  0  0  0  0 
  3  6  1  0  0  0  0 
  6  7  1  0  0  0  0 
  6  8  1  0  0  0  0 
  6  9  1  0  0  0  0 
M  END
> <Name>
Acrylic acid, tert-butyl ester (8CI)

> <Source>
DSSTox2DMolFile

> <Tox>
3.270

> <CAS>
1663-39-4

$$$$

  CDK

  9  8  0  0  0  0  0  0  0  0999 V2000
   -2.8938    1.2848   -0.0197 O   0  0  0  0  0  0  0  0  0  0  0  0
   -2.6942    0.0828    0.1410 C   0  0  0  0  0  0  0  0  0  0  0  0
   -1.3665   -0.5410   -0.1120 C   0  0  0  0  0  0  0  0  0  0  0  0
   -3.7921   -0.8279    0.6248 C   0  0  0  0  0  0  0  0  0  0  0  0
   -0.3361    0.1972   -0.5456 C   0  0  0  0  0  0  0  0  0  0  0  0
    1.0285   -0.3696   -0.8154 C   0  0  0  0  0  0  0  0  0  0  0  0
    2.0812    0.2593    0.0995 C   0  0  0  0  0  0  0  0  0  0  0  0
    3.4648   -0.3408   -0.1520 C   0  0  0  0  0  0  0  0  0  0  0  0
    4.5083    0.2551    0.7794 C   0  0  0  0  0  0  0  0  0  0  0  0
  1  2  2  0  0  0  0 
  3  2  1  0  0  0  0 
  2  4  1  0  0  0  0 
  5  3  2  0  0  0  0 
  6  5  1  0  0  0  0 
  7  6  1  0  0  0  0 
  7  8  1  0  0  0  0 
  8  9  1  0  0  0  0 
M  END
> <Name>
(E)-oct-3-en-2-one

> <Source>
Chemidplus3DMolFile

> <Tox>
3.740

> <CAS>
1669-44-9

$$$$

  CDK

 14 14  0  0  0  0  0  0  0  0999 V2000
    2.0856    4.9379    2.6797 C   0  0  0  0  0  0  0  0  0  0  0  0
    1.2828    5.4985    1.6949 C   0  0  0  0  0  0  0  0  0  0  0  0
    2.2350    3.5513    2.7567 C   0  0  0  0  0  0  0  0  0  0  0  0
    0.6310    4.6794    0.7774 C   0  0  0  0  0  0  0  0  0  0  0  0
    1.5768    2.7318    1.8388 C   0  0  0  0  0  0  0  0  0  0  0  0
    3.0806    2.9520    3.8320 C   0  0  0  0  0  0  0  0  0  0  0  0
    0.7804    3.2988    0.8489 C   0  0  0  0  0  0  0  0  0  0  0  0
    4.2769    3.7661    4.2868 C   0  0  0  0  0  0  0  0  0  0  0  0
    2.8165    1.8708    4.3238 O   0  0  0  0  0  0  0  0  0  0  0  0
    5.4447    3.6327    3.3192 C   0  0  0  0  0  0  0  0  0  0  0  0
    6.2291    2.3466    3.5345 C   0  0  0  0  0  0  0  0  0  0  0  0
    6.9030    2.3260    4.8981 C   0  0  0  0  0  0  0  0  0  0  0  0
    7.5426    0.9787    5.1856 C   0  0  0  0  0  0  0  0  0  0  0  0
    8.2319    0.9703    6.5312 C   0  0  0  0  0  0  0  0  0  0  0  0
  2  1  2  0  0  0  0 
  1  3  1  0  0  0  0 
  4  2  1  0  0  0  0 
  3  5  2  0  0  0  0 
  3  6  1  0  0  0  0 
  7  4  2  0  0  0  0 
  5  7  1  0  0  0  0 
  6  8  1  0  0  0  0 
  6  9  2  0  0  0  0 
 10  8  1  0  0  0  0 
 11 10  1  0  0  0  0 
 12 11  1  0  0  0  0 
 13 12  1  0  0  0  0 
 13 14  1  0  0  0  0 
M  END
> <Name>
1-Heptanone, 1-phenyl-

> <Source>
NIST3DMolFile

> <Tox>
4.560

> <CAS>
1671-75-6

$$$$

  CDK

 15 15  0  0  0  0  0  0  0  0999 V2000
    3.4646    1.5566    0.0000 C   0  0  0  0  0  0  0  0  0  0  0  0
    2.5608    2.0085    0.0000 C   0  0  0  0  0  0  0  0  0  0  0  0
    4.3684    2.0587    0.0000 C   0  0  0  0  0  0  0  0  0  0  0  0
    2.5608    3.0127    0.0000 O   0  0  0  0  0  0  0  0  0  0  0  0
    1.7574    1.5064    0.0000 C   0  0  0  0  0  0  0  0  0  0  0  0
    5.2220    1.5566    0.0000 C   0  0  0  0  0  0  0  0  0  0  0  0
    0.9038    2.0085    0.0000 C   0  0  0  0  0  0  0  0  0  0  0  0
    1.7574    0.5523    0.0000 C   0  0  0  0  0  0  0  0  0  0  0  0
    6.1259    2.0587    0.0000 C   0  0  0  0  0  0  0  0  0  0  0  0
    0.0000    1.5064    0.0000 C   0  0  0  0  0  0  0  0  0  0  0  0
    0.9038    0.0000    0.0000 C   0  0  0  0  0  0  0  0  0  0  0  0
    6.9795    1.5566    0.0000 C   0  0  0  0  0  0  0  0  0  0  0  0
    0.0000    0.5021    0.0000 C   0  0  0  0  0  0  0  0  0  0  0  0
    7.8331    2.0587    0.0000 C   0  0  0  0  0  0  0  0  0  0  0  0
    8.6867    1.6068    0.0000 C   0  0  0  0  0  0  0  0  0  0  0  0
  1  2  1  0  0  0  0 
  1  3  1  0  0  0  0 
  2  4  2  0  0  0  0 
  2  5  1  0  0  0  0 
  3  6  1  0  0  0  0 
  7  5  2  0  0  0  0 
  5  8  1  0  0  0  0 
  6  9  1  0  0  0  0 
 10  7  1  0  0  0  0 
  8 11  2  0  0  0  0 
  9 12  1  0  0  0  0 
 13 10  2  0  0  0  0 
 11 13  1  0  0  0  0 
 12 14  1  0  0  0  0 
 14 15  1  0  0  0  0 
M  END
> <Name>
1-Octanone, 1-phenyl-

> <Source>
NIST2DMolFile

> <Tox>
4.890

> <CAS>
1674-37-9

$$$$

  CDK

  7  6  0  0  0  0  0  0  0  0999 V2000
   -2.4237    0.9777    0.0292 O   0  0  0  0  0  0  0  0  0  0  0  0
   -1.6736    0.0110    0.0041 C   0  0  0  0  0  0  0  0  0  0  0  0
   -2.1444   -1.4128   -0.0182 C   0  0  0  0  0  0  0  0  0  0  0  0
   -0.2441    0.2115   -0.0077 C   0  0  0  0  0  0  0  0  0  0  0  0
    0.9454    0.3767   -0.0174 C   0  0  0  0  0  0  0  0  0  0  0  0
    2.3991    0.5799   -0.0292 C   0  0  0  0  0  0  0  0  0  0  0  0
    3.1412   -0.7441    0.0392 C   0  0  0  0  0  0  0  0  0  0  0  0
  1  2  2  0  0  0  0 
  2  3  1  0  0  0  0 
  2  4  1  0  0  0  0 
  5  4  3  0  0  0  0 
  6  5  1  0  0  0  0 
  6  7  1  0  0  0  0 
M  END
> <Name>
hex-3-yn-2-one

> <Source>
Chemidplus3DMolFile

> <Tox>
4.320

> <CAS>
1679-36-3

$$$$

  CDK

  7  7  0  0  0  0  0  0  0  0999 V2000
    0.6541    2.0442    0.9866 C   0  0  0  0  0  0  0  0  0  0  0  0
    2.0804    1.6509    1.3074 C   0  0  0  0  0  0  0  0  0  0  0  0
    3.0088    2.8551    1.3383 C   0  0  0  0  0  0  0  0  0  0  0  0
    2.2400    1.0523    2.7112 C   0  0  0  0  0  0  0  0  0  0  0  0
    3.2858    3.7040    0.5264 O   0  0  0  0  0  0  0  0  0  0  0  0
    3.6641    2.9887    2.5364 O   0  0  0  0  0  0  0  0  0  0  0  0
    3.2757    1.9376    3.4219 C   0  0  0  0  0  0  0  0  0  0  0  0
  1  2  1  0  0  0  0 
  2  3  1  0  0  0  0 
  4  2  1  0  0  0  0 
  3  5  2  0  0  0  0 
  3  6  1  0  0  0  0 
  7  4  1  0  0  0  0 
  6  7  1  0  0  0  0 
M  END
> <Name>
alpha-Methyl-gamma-butyrolactone

> <Source>
NIST3DMolFile

> <Tox>
1.810

> <CAS>
1679-47-6

$$$$

  CDK

 10 10  0  0  0  0  0  0  0  0999 V2000
   -2.2880    0.0710    0.0009 O   0  0  0  0  0  0  0  0  0  0  0  0
   -0.9295   -0.0308   -0.0003 C   0  0  0  0  0  0  0  0  0  0  0  0
   -3.0292   -1.1475    0.0000 C   0  0  0  0  0  0  0  0  0  0  0  0
   -0.1328    1.1141    0.0004 C   0  0  0  0  0  0  0  0  0  0  0  0
   -0.3364   -1.2933   -0.0006 C   0  0  0  0  0  0  0  0  0  0  0  0
   -0.7005    2.3524   -0.0010 O   0  0  0  0  0  0  0  0  0  0  0  0
    1.2571    0.9966    0.0008 C   0  0  0  0  0  0  0  0  0  0  0  0
    1.0535   -1.4108   -0.0003 C   0  0  0  0  0  0  0  0  0  0  0  0
    1.8503   -0.2659    0.0004 C   0  0  0  0  0  0  0  0  0  0  0  0
    3.2556   -0.3858   -0.0001 N   0  0  0  0  0  0  0  0  0  0  0  0
  1  2  1  0  0  0  0 
  1  3  1  0  0  0  0 
  2  4  2  0  0  0  0 
  2  5  1  0  0  0  0 
  6  4  1  0  0  0  0 
  4  7  1  0  0  0  0 
  5  8  2  0  0  0  0 
  9  7  2  0  0  0  0 
  9  8  1  0  0  0  0 
 10  9  1  0  0  0  0 
M  END
> <Name>
5-amino-2-methoxyphenol

> <Source>
Chemidplus3DMolFile

> <Tox>
3.450

> <CAS>
1687-53-2

$$$$

  CDK

 15 16  0  0  0  0  0  0  0  0999 V2000
    3.3219   -3.4516    0.0000 C   0  0  0  0  0  0  0  0  0  0  0  0
    1.9952   -3.4516    0.0000 C   0  0  0  0  0  0  0  0  0  0  0  0
    3.9903   -2.3044    0.0000 C   0  0  0  0  0  0  0  0  0  0  0  0
    1.3268   -2.3044    0.0000 C   0  0  0  0  0  0  0  0  0  0  0  0
    3.3219   -1.1472    0.0000 C   0  0  0  0  0  0  0  0  0  0  0  0
    5.3171   -2.3044    0.0000 N   0  0  0  0  0  0  0  0  0  0  0  0
    0.0000   -2.3044    0.0000 O   0  0  0  0  0  0  0  0  0  0  0  0
    1.9952   -1.1472    0.0000 C   0  0  0  0  0  0  0  0  0  0  0  0
    5.9855   -1.1472    0.0000 N   0  0  0  0  0  0  0  0  0  0  0  0
    7.3122   -1.1472    0.0000 C   0  0  0  0  0  0  0  0  0  0  0  0
    7.9806   -0.0000    0.0000 C   0  0  0  0  0  0  0  0  0  0  0  0
    7.9806   -2.3044    0.0000 C   0  0  0  0  0  0  0  0  0  0  0  0
    9.3074   -0.0000    0.0000 C   0  0  0  0  0  0  0  0  0  0  0  0
    9.3074   -2.3044    0.0000 C   0  0  0  0  0  0  0  0  0  0  0  0
    9.9758   -1.1472    0.0000 C   0  0  0  0  0  0  0  0  0  0  0  0
  1  2  2  0  0  0  0 
  1  3  1  0  0  0  0 
  2  4  1  0  0  0  0 
  5  3  2  0  0  0  0 
  3  6  1  0  0  0  0 
  4  7  1  0  0  0  0 
  4  8  2  0  0  0  0 
  8  5  1  0  0  0  0 
  6  9  2  0  0  0  0 
  9 10  1  0  0  0  0 
 10 11  2  0  0  0  0 
 10 12  1  0  0  0  0 
 11 13  1  0  0  0  0 
 14 12  2  0  0  0  0 
 13 15  2  0  0  0  0 
 15 14  1  0  0  0  0 
M  END
> <Name>
C.I. Solvent Yellow 7 (8CI)

> <Source>
DSSTox2DMolFile

> <Tox>
4.660

> <CAS>
1689-82-3

$$$$

  CDK

 11 11  0  0  0  0  0  0  0  0999 V2000
    3.3240   -3.4570    0.0000 C   0  0  0  0  0  0  0  0  0  0  0  0
    1.9944   -3.4570    0.0000 C   0  0  0  0  0  0  0  0  0  0  0  0
    3.9888   -2.3069    0.0000 C   0  0  0  0  0  0  0  0  0  0  0  0
    1.3296   -4.6071    0.0000 Br  0  0  0  0  0  0  0  0  0  0  0  0
    1.3296   -2.3069    0.0000 C   0  0  0  0  0  0  0  0  0  0  0  0
    3.3240   -1.1501    0.0000 C   0  0  0  0  0  0  0  0  0  0  0  0
    5.3184   -2.3069    0.0000 C   0  0  0  0  0  0  0  0  0  0  0  0
    0.0000   -2.3069    0.0000 O   0  0  0  0  0  0  0  0  0  0  0  0
    1.9944   -1.1501    0.0000 C   0  0  0  0  0  0  0  0  0  0  0  0
    6.6480   -2.3069    0.0000 N   0  0  0  0  0  0  0  0  0  0  0  0
    1.3296   -0.0000    0.0000 Br  0  0  0  0  0  0  0  0  0  0  0  0
  1  2  2  0  0  0  0 
  1  3  1  0  0  0  0 
  2  4  1  0  0  0  0 
  2  5  1  0  0  0  0 
  6  3  2  0  0  0  0 
  3  7  1  0  0  0  0 
  5  8  1  0  0  0  0 
  5  9  2  0  0  0  0 
  9  6  1  0  0  0  0 
  7 10  3  0  0  0  0 
  9 11  1  0  0  0  0 
M  END
> <Name>
Benzonitrile, 3,5-dibromo-4-hydroxy-

> <Source>
DSSTox2DMolFile

> <Tox>
4.160

> <CAS>
1689-84-5

$$$$

  CDK

  8  7  0  0  0  0  0  0  0  0999 V2000
    1.7136    1.0080    0.0000 C   0  0  0  0  0  0  0  0  0  0  0  0
    1.7136    0.0000    0.0000 Cl  0  0  0  0  0  0  0  0  0  0  0  0
    0.8568    1.5120    0.0000 C   0  0  0  0  0  0  0  0  0  0  0  0
    2.5703    1.5120    0.0000 C   0  0  0  0  0  0  0  0  0  0  0  0
    0.0000    1.0080    0.0000 C   0  0  0  0  0  0  0  0  0  0  0  0
    0.8568    2.5199    0.0000 O   0  0  0  0  0  0  0  0  0  0  0  0
    3.4271    1.0080    0.0000 C   0  0  0  0  0  0  0  0  0  0  0  0
    2.5703    2.5199    0.0000 O   0  0  0  0  0  0  0  0  0  0  0  0
  1  2  1  0  0  0  0 
  1  3  1  0  0  0  0 
  1  4  1  0  0  0  0 
  3  5  1  0  0  0  0 
  3  6  2  0  0  0  0 
  4  7  1  0  0  0  0 
  4  8  2  0  0  0  0 
M  END
> <Name>
2,4-Pentanedione, 3-chloro-

> <Source>
NIST2DMolFile

> <Tox>
4.444

> <CAS>
1694-29-7

$$$$

  CDK

 12 11  0  0  0  0  0  0  0  0999 V2000
    5.6941    2.5457    1.1295 C   0  0  0  0  0  0  0  0  0  0  0  0
    5.0588    1.3519    1.8261 C   0  0  0  0  0  0  0  0  0  0  0  0
    7.0366    2.9260    1.7338 C   0  0  0  0  0  0  0  0  0  0  0  0
    3.6956    1.0102    1.2466 C   0  0  0  0  0  0  0  0  0  0  0  0
    8.1270    1.9138    1.4175 C   0  0  0  0  0  0  0  0  0  0  0  0
    2.6178    1.9754    1.6868 C   0  0  0  0  0  0  0  0  0  0  0  0
    9.4830    2.3897    1.9129 C   0  0  0  0  0  0  0  0  0  0  0  0
    1.7409    2.2831    0.6814 O   0  0  0  0  0  0  0  0  0  0  0  0
    2.4403    2.4620    2.7858 O   0  0  0  0  0  0  0  0  0  0  0  0
   10.5693    1.3662    1.6227 C   0  0  0  0  0  0  0  0  0  0  0  0
    0.6601    3.1459    0.9607 C   0  0  0  0  0  0  0  0  0  0  0  0
   11.9250    1.8514    2.0837 C   0  0  0  0  0  0  0  0  0  0  0  0
  1  2  1  0  0  0  0 
  1  3  1  0  0  0  0 
  2  4  1  0  0  0  0 
  3  5  1  0  0  0  0 
  4  6  1  0  0  0  0 
  5  7  1  0  0  0  0 
  6  8  1  0  0  0  0 
  6  9  2  0  0  0  0 
  7 10  1  0  0  0  0 
  8 11  1  0  0  0  0 
 10 12  1  0  0  0  0 
M  END
> <Name>
Nonanoic acid, methyl ester

> <Source>
NIST3DMolFile

> <Tox>
4.040

> <CAS>
1731-84-6

$$$$

  CDK

 14 13  0  0  0  0  0  0  0  0999 V2000
    6.8324    0.7407    0.9844 C   0  0  0  0  0  0  0  0  0  0  0  0
    5.5659    1.5827    0.9791 C   0  0  0  0  0  0  0  0  0  0  0  0
    8.0743    1.6171    1.0054 C   0  0  0  0  0  0  0  0  0  0  0  0
    4.3311    0.6981    0.9300 C   0  0  0  0  0  0  0  0  0  0  0  0
    9.3410    0.7772    1.0343 C   0  0  0  0  0  0  0  0  0  0  0  0
    3.0466    1.4920    0.9388 C   0  0  0  0  0  0  0  0  0  0  0  0
   10.5842    1.6519    1.0292 C   0  0  0  0  0  0  0  0  0  0  0  0
    1.9401    0.6885    0.8443 O   0  0  0  0  0  0  0  0  0  0  0  0
    2.8901    2.6939    1.0179 O   0  0  0  0  0  0  0  0  0  0  0  0
   11.8502    0.8122    1.0801 C   0  0  0  0  0  0  0  0  0  0  0  0
    0.6628    1.2883    0.8414 C   0  0  0  0  0  0  0  0  0  0  0  0
   13.0943    1.6851    1.0558 C   0  0  0  0  0  0  0  0  0  0  0  0
   14.3611    0.8470    1.1201 C   0  0  0  0  0  0  0  0  0  0  0  0
   15.6002    1.7126    1.0873 C   0  0  0  0  0  0  0  0  0  0  0  0
  1  2  1  0  0  0  0 
  1  3  1  0  0  0  0 
  2  4  1  0  0  0  0 
  3  5  1  0  0  0  0 
  4  6  1  0  0  0  0 
  5  7  1  0  0  0  0 
  6  8  1  0  0  0  0 
  6  9  2  0  0  0  0 
  7 10  1  0  0  0  0 
  8 11  1  0  0  0  0 
 10 12  1  0  0  0  0 
 12 13  1  0  0  0  0 
 13 14  1  0  0  0  0 
M  END
> <Name>
Undecanoic acid, methyl ester

> <Source>
NIST3DMolFile

> <Tox>
4.425

> <CAS>
1731-86-8

$$$$

  CDK

 14 13  0  0  0  0  0  0  0  0999 V2000
    4.2980    1.7642    1.0962 C   0  0  0  0  0  0  0  0  0  0  0  0
    3.0512    1.0933    1.6241 C   0  0  0  0  0  0  0  0  0  0  0  0
    5.5597    1.2334    1.7571 C   0  0  0  0  0  0  0  0  0  0  0  0
    1.9323    1.8652    1.4551 O   0  0  0  0  0  0  0  0  0  0  0  0
    2.9353    0.0000    2.1407 O   0  0  0  0  0  0  0  0  0  0  0  0
    6.7963    1.9033    1.1787 C   0  0  0  0  0  0  0  0  0  0  0  0
    0.6851    1.3559    1.8746 C   0  0  0  0  0  0  0  0  0  0  0  0
    8.0607    1.3829    1.8427 C   0  0  0  0  0  0  0  0  0  0  0  0
    9.2995    2.0382    1.2524 C   0  0  0  0  0  0  0  0  0  0  0  0
   10.5575    1.5205    1.9295 C   0  0  0  0  0  0  0  0  0  0  0  0
   11.8144    2.1466    1.3736 C   0  0  0  0  0  0  0  0  0  0  0  0
   12.9479    1.5925    1.9090 O   0  0  0  0  0  0  0  0  0  0  0  0
   11.9297    3.0369    0.5555 O   0  0  0  0  0  0  0  0  0  0  0  0
   14.2043    2.0816    1.4930 C   0  0  0  0  0  0  0  0  0  0  0  0
  1  2  1  0  0  0  0 
  1  3  1  0  0  0  0 
  2  4  1  0  0  0  0 
  2  5  2  0  0  0  0 
  3  6  1  0  0  0  0 
  4  7  1  0  0  0  0 
  6  8  1  0  0  0  0 
  8  9  1  0  0  0  0 
  9 10  1  0  0  0  0 
 10 11  1  0  0  0  0 
 11 12  1  0  0  0  0 
 11 13  2  0  0  0  0 
 12 14  1  0  0  0  0 
M  END
> <Name>
Octanedioic acid, dimethyl ester

> <Source>
NIST3DMolFile

> <Tox>
3.296

> <CAS>
1732-09-8

$$$$

  CDK

 10 10  0  0  0  0  0  0  0  0999 V2000
    5.9872   -3.4546    0.0000 C   0  0  0  0  0  0  0  0  0  0  0  0
    4.6581   -3.4546    0.0000 C   0  0  0  0  0  0  0  0  0  0  0  0
    3.9935   -2.3051    0.0000 C   0  0  0  0  0  0  0  0  0  0  0  0
    2.6583   -2.3051    0.0000 C   0  0  0  0  0  0  0  0  0  0  0  0
    1.9937   -3.4546    0.0000 C   0  0  0  0  0  0  0  0  0  0  0  0
    1.9937   -1.1495    0.0000 C   0  0  0  0  0  0  0  0  0  0  0  0
    0.6646   -3.4546    0.0000 C   0  0  0  0  0  0  0  0  0  0  0  0
    0.6646   -1.1495    0.0000 C   0  0  0  0  0  0  0  0  0  0  0  0
    2.6583   -0.0000    0.0000 O   0  0  0  0  0  0  0  0  0  0  0  0
    0.0000   -2.3051    0.0000 C   0  0  0  0  0  0  0  0  0  0  0  0
  1  2  2  0  0  0  0 
  2  3  1  0  0  0  0 
  3  4  1  0  0  0  0 
  4  5  2  0  0  0  0 
  4  6  1  0  0  0  0 
  5  7  1  0  0  0  0 
  8  6  2  0  0  0  0 
  6  9  1  0  0  0  0 
  7 10  2  0  0  0  0 
 10  8  1  0  0  0  0 
M  END
> <Name>
Phenol, 2-(2-propenyl)-

> <Source>
DSSTox2DMolFile

> <Tox>
3.330

> <CAS>
1745-81-9

$$$$

  CDK

 10 10  0  0  0  0  0  0  0  0999 V2000
    2.3039   -1.9986    0.0000 C   0  0  0  0  0  0  0  0  0  0  0  0
    1.1519   -2.6610    0.0000 C   0  0  0  0  0  0  0  0  0  0  0  0
    2.3039   -0.6681    0.0000 C   0  0  0  0  0  0  0  0  0  0  0  0
    3.4558   -2.6610    0.0000 C   0  0  0  0  0  0  0  0  0  0  0  0
    0.0000   -1.9986    0.0000 O   0  0  0  0  0  0  0  0  0  0  0  0
    1.1519   -0.0000    0.0000 O   0  0  0  0  0  0  0  0  0  0  0  0
    3.4558   -0.0000    0.0000 C   0  0  0  0  0  0  0  0  0  0  0  0
    4.6078   -1.9986    0.0000 C   0  0  0  0  0  0  0  0  0  0  0  0
    4.6078   -0.6681    0.0000 C   0  0  0  0  0  0  0  0  0  0  0  0
    5.7597   -2.6610    0.0000 Br  0  0  0  0  0  0  0  0  0  0  0  0
  1  2  1  0  0  0  0 
  1  3  2  0  0  0  0 
  1  4  1  0  0  0  0 
  2  5  2  0  0  0  0 
  3  6  1  0  0  0  0 
  3  7  1  0  0  0  0 
  8  4  2  0  0  0  0 
  7  9  2  0  0  0  0 
  9  8  1  0  0  0  0 
  8 10  1  0  0  0  0 
M  END
> <Name>
Benzaldehyde, 5-bromo-2-hydroxy-

> <Source>
DSSTox2DMolFile

> <Tox>
4.107

> <CAS>
1761-61-1

$$$$

  CDK

 14 15  0  0  0  0  0  0  0  0999 V2000
    5.4652    4.3439    2.6913 O   0  0  0  0  0  0  0  0  0  0  0  0
    6.1346    3.2215    2.2863 C   0  0  0  0  0  0  0  0  0  0  0  0
    5.3647    2.1056    1.9135 C   0  0  0  0  0  0  0  0  0  0  0  0
    7.5353    3.1777    2.2260 C   0  0  0  0  0  0  0  0  0  0  0  0
    6.0221    0.9546    1.4776 C   0  0  0  0  0  0  0  0  0  0  0  0
    3.8948    2.1251    1.9632 C   0  0  0  0  0  0  0  0  0  0  0  0
    8.1623    2.0181    1.7897 C   0  0  0  0  0  0  0  0  0  0  0  0
    7.4098    0.9103    1.4138 C   0  0  0  0  0  0  0  0  0  0  0  0
    3.1832    1.6534    3.0822 C   0  0  0  0  0  0  0  0  0  0  0  0
    3.1800    2.6220    0.8739 C   0  0  0  0  0  0  0  0  0  0  0  0
    3.9101    1.1652    4.1332 O   0  0  0  0  0  0  0  0  0  0  0  0
    1.7811    1.6867    3.0989 C   0  0  0  0  0  0  0  0  0  0  0  0
    1.7895    2.6549    0.8909 C   0  0  0  0  0  0  0  0  0  0  0  0
    1.0944    2.1886    2.0008 C   0  0  0  0  0  0  0  0  0  0  0  0
  1  2  1  0  0  0  0 
  3  2  2  0  0  0  0 
  2  4  1  0  0  0  0 
  5  3  1  0  0  0  0 
  3  6  1  0  0  0  0 
  4  7  2  0  0  0  0 
  8  5  2  0  0  0  0 
  6  9  2  0  0  0  0 
 10  6  1  0  0  0  0 
  7  8  1  0  0  0  0 
  9 11  1  0  0  0  0 
  9 12  1  0  0  0  0 
 13 10  2  0  0  0  0 
 12 14  2  0  0  0  0 
 14 13  1  0  0  0  0 
M  END
> <Name>
(1,1'-Biphenyl)-2,2'-diol

> <Source>
NIST3DMolFile

> <Tox>
3.880

> <CAS>
1806-29-7

$$$$

  CDK

 14 14  0  0  0  0  0  0  0  0999 V2000
    1.9929   -0.0000    0.0000 O   0  0  0  0  0  0  0  0  0  0  0  0
    1.3286   -1.1491    0.0000 N   0  0  0  0  0  0  0  0  0  0  0  0
    0.0000   -1.1491    0.0000 O   0  0  0  0  0  0  0  0  0  0  0  0
    1.9929   -2.3041    0.0000 C   0  0  0  0  0  0  0  0  0  0  0  0
    3.3275   -2.3041    0.0000 C   0  0  0  0  0  0  0  0  0  0  0  0
    1.3286   -3.4532    0.0000 C   0  0  0  0  0  0  0  0  0  0  0  0
    3.9918   -3.4532    0.0000 C   0  0  0  0  0  0  0  0  0  0  0  0
    1.9929   -4.6083    0.0000 C   0  0  0  0  0  0  0  0  0  0  0  0
    5.3205   -3.4532    0.0000 N   0  0  0  0  0  0  0  0  0  0  0  0
    3.3275   -4.6083    0.0000 C   0  0  0  0  0  0  0  0  0  0  0  0
    1.3286   -5.7573    0.0000 Br  0  0  0  0  0  0  0  0  0  0  0  0
    5.9848   -4.6083    0.0000 O   0  0  0  0  0  0  0  0  0  0  0  0
    5.9848   -2.3041    0.0000 O   0  0  0  0  0  0  0  0  0  0  0  0
    3.9918   -5.7573    0.0000 N   0  0  0  0  0  0  0  0  0  0  0  0
  1  2  2  0  0  0  0 
  2  3  1  0  0  0  0 
  2  4  1  0  0  0  0 
  4  5  2  0  0  0  0 
  4  6  1  0  0  0  0 
  5  7  1  0  0  0  0 
  8  6  2  0  0  0  0 
  7  9  1  0  0  0  0 
  7 10  2  0  0  0  0 
 10  8  1  0  0  0  0 
  8 11  1  0  0  0  0 
  9 12  1  0  0  0  0 
  9 13  2  0  0  0  0 
 10 14  1  0  0  0  0 
M  CHG  1   2   1
M  CHG  1   3  -1
M  CHG  1   9   1
M  CHG  1  12  -1
M  END
> <Name>
Benzenamine, 2-bromo-4,6-dinitro-

> <Source>
DSSTox2DMolFile

> <Tox>
4.240

> <CAS>
1817-73-8

$$$$

  CDK

 10 10  0  0  0  0  0  0  0  0999 V2000
    0.9996    0.0000    0.0000 C   0  0  0  0  0  0  0  0  0  0  0  0
    1.4994    0.8497    0.0000 C   0  0  0  0  0  0  0  0  0  0  0  0
    0.0000    0.0000    0.0000 C   0  0  0  0  0  0  0  0  0  0  0  0
    2.4991    0.8497    0.0000 C   0  0  0  0  0  0  0  0  0  0  0  0
    2.9989    1.7493    0.0000 C   0  0  0  0  0  0  0  0  0  0  0  0
    2.9989    0.0000    0.0000 C   0  0  0  0  0  0  0  0  0  0  0  0
    2.4991    2.5990    0.0000 N   0  0  0  0  0  0  0  0  0  0  0  0
    3.9985    1.7493    0.0000 C   0  0  0  0  0  0  0  0  0  0  0  0
    3.9985    0.0000    0.0000 C   0  0  0  0  0  0  0  0  0  0  0  0
    4.4983    0.8497    0.0000 C   0  0  0  0  0  0  0  0  0  0  0  0
  1  2  1  0  0  0  0 
  1  3  1  0  0  0  0 
  2  4  1  0  0  0  0 
  5  4  2  0  0  0  0 
  4  6  1  0  0  0  0 
  5  7  1  0  0  0  0 
  8  5  1  0  0  0  0 
  6  9  2  0  0  0  0 
 10  8  2  0  0  0  0 
  9 10  1  0  0  0  0 
M  END
> <Name>
Benzenamine, 2-propyl- (9CI)

> <Source>
NIST2DMolFile

> <Tox>
3.080

> <CAS>
1821-39-2

$$$$

  CDK

  9  9  0  0  0  0  0  0  0  0999 V2000
    2.9896    1.7228    0.0000 C   0  0  0  0  0  0  0  0  0  0  0  0
    4.0030    1.7228    0.0000 C   0  0  0  0  0  0  0  0  0  0  0  0
    2.4829    0.8614    0.0000 C   0  0  0  0  0  0  0  0  0  0  0  0
    4.5097    0.8614    0.0000 C   0  0  0  0  0  0  0  0  0  0  0  0
    2.9896    0.0000    0.0000 C   0  0  0  0  0  0  0  0  0  0  0  0
    1.5201    0.8614    0.0000 S   0  0  0  0  0  0  0  0  0  0  0  0
    4.0030    0.0000    0.0000 C   0  0  0  0  0  0  0  0  0  0  0  0
    1.0134    1.7228    0.0000 C   0  0  0  0  0  0  0  0  0  0  0  0
    0.0000    1.7228    0.0000 C   0  0  0  0  0  0  0  0  0  0  0  0
  2  1  2  0  0  0  0 
  1  3  1  0  0  0  0 
  4  2  1  0  0  0  0 
  3  5  2  0  0  0  0 
  3  6  1  0  0  0  0 
  7  4  2  0  0  0  0 
  5  7  1  0  0  0  0 
  6  8  1  0  0  0  0 
  8  9  2  0  0  0  0 
M  END
> <Name>
Phenyl vinyl sulphide

> <Source>
NIST2DMolFile

> <Tox>
3.420

> <CAS>
1822-73-7

$$$$

  CDK

 10 10  0  0  0  0  0  0  0  0999 V2000
    0.5049    0.8583    0.0000 C   0  0  0  0  0  0  0  0  0  0  0  0
    1.0098    1.7166    0.0000 C   0  0  0  0  0  0  0  0  0  0  0  0
    0.0000    0.0000    0.0000 N   0  0  0  0  0  0  0  0  0  0  0  0
    0.5049    2.5750    0.0000 C   0  0  0  0  0  0  0  0  0  0  0  0
    2.0196    1.7166    0.0000 C   0  0  0  0  0  0  0  0  0  0  0  0
    2.5245    2.5750    0.0000 C   0  0  0  0  0  0  0  0  0  0  0  0
    2.5245    0.8583    0.0000 C   0  0  0  0  0  0  0  0  0  0  0  0
    3.5343    2.5750    0.0000 C   0  0  0  0  0  0  0  0  0  0  0  0
    3.5343    0.8583    0.0000 C   0  0  0  0  0  0  0  0  0  0  0  0
    4.0391    1.7166    0.0000 C   0  0  0  0  0  0  0  0  0  0  0  0
  1  2  1  0  0  0  0 
  1  3  3  0  0  0  0 
  2  4  1  0  0  0  0 
  2  5  1  0  0  0  0 
  6  5  2  0  0  0  0 
  5  7  1  0  0  0  0 
  8  6  1  0  0  0  0 
  7  9  2  0  0  0  0 
 10  8  2  0  0  0  0 
  9 10  1  0  0  0  0 
M  END
> <Name>
Benzeneacetonitrile, alpha-methyl-

> <Source>
NIST2DMolFile

> <Tox>
3.010

> <CAS>
1823-91-2

$$$$

  CDK

 14 14  0  0  0  0  0  0  0  0999 V2000
    2.4738    2.5747    0.0000 C   0  0  0  0  0  0  0  0  0  0  0  0
    1.9689    3.4330    0.0000 F   0  0  0  0  0  0  0  0  0  0  0  0
    1.9689    1.7165    0.0000 C   0  0  0  0  0  0  0  0  0  0  0  0
    3.4835    2.5747    0.0000 C   0  0  0  0  0  0  0  0  0  0  0  0
    2.4738    0.8582    0.0000 C   0  0  0  0  0  0  0  0  0  0  0  0
    0.9592    1.7165    0.0000 C   0  0  0  0  0  0  0  0  0  0  0  0
    3.9883    3.4330    0.0000 F   0  0  0  0  0  0  0  0  0  0  0  0
    3.9883    1.7165    0.0000 C   0  0  0  0  0  0  0  0  0  0  0  0
    3.4835    0.8582    0.0000 C   0  0  0  0  0  0  0  0  0  0  0  0
    1.9184    0.0000    0.0000 F   0  0  0  0  0  0  0  0  0  0  0  0
    0.0000    1.7165    0.0000 N   0  0  0  0  0  0  0  0  0  0  0  0
    4.9980    1.7165    0.0000 C   0  0  0  0  0  0  0  0  0  0  0  0
    3.9883    0.0000    0.0000 F   0  0  0  0  0  0  0  0  0  0  0  0
    6.0077    1.7165    0.0000 N   0  0  0  0  0  0  0  0  0  0  0  0
  1  2  1  0  0  0  0 
  1  3  2  0  0  0  0 
  4  1  1  0  0  0  0 
  3  5  1  0  0  0  0 
  3  6  1  0  0  0  0 
  4  7  1  0  0  0  0 
  8  4  2  0  0  0  0 
  5  9  2  0  0  0  0 
  5 10  1  0  0  0  0 
  6 11  3  0  0  0  0 
  9  8  1  0  0  0  0 
  8 12  1  0  0  0  0 
  9 13  1  0  0  0  0 
 12 14  3  0  0  0  0 
M  END
> <Name>
Terephthalonitrile, tetrafluoro- (8CI)

> <Source>
NIST2DMolFile

> <Tox>
5.550

> <CAS>
1835-49-0

$$$$

  CDK

  9  8  0  0  0  0  0  0  0  0999 V2000
   -4.1897   -1.2271    0.1511 O   0  0  0  0  0  0  0  0  0  0  0  0
   -3.8690   -0.0831   -0.1357 C   0  0  0  0  0  0  0  0  0  0  0  0
   -2.4963    0.3402   -0.0589 C   0  0  0  0  0  0  0  0  0  0  0  0
   -1.3501    0.6927    0.0038 C   0  0  0  0  0  0  0  0  0  0  0  0
    0.0520    1.1259    0.0812 C   0  0  0  0  0  0  0  0  0  0  0  0
    1.0290   -0.0425   -0.0621 C   0  0  0  0  0  0  0  0  0  0  0  0
    2.4935    0.3841    0.0867 C   0  0  0  0  0  0  0  0  0  0  0  0
    3.4372   -0.8057   -0.0919 C   0  0  0  0  0  0  0  0  0  0  0  0
    4.8933   -0.3844    0.0256 C   0  0  0  0  0  0  0  0  0  0  0  0
  1  2  2  0  0  0  0 
  3  2  1  0  0  0  0 
  4  3  3  0  0  0  0 
  5  4  1  0  0  0  0 
  6  5  1  0  0  0  0 
  7  6  1  0  0  0  0 
  7  8  1  0  0  0  0 
  8  9  1  0  0  0  0 
M  END
> <Name>
oct-2-ynal

> <Source>
Chemidplus3DMolFile

> <Tox>
4.720

> <CAS>
1846-68-0

$$$$

  CDK

 11 10  0  0  0  0  0  0  0  0999 V2000
    5.6309    1.0624    2.4429 C   0  0  0  0  0  0  0  0  0  0  0  0
    6.5772    1.8127    1.5113 C   0  0  0  0  0  0  0  0  0  0  0  0
    4.2741    1.1048    1.9671 C   0  0  0  0  0  0  0  0  0  0  0  0
    8.0178    1.7442    1.9937 C   0  0  0  0  0  0  0  0  0  0  0  0
    3.1480    1.1350    1.5756 C   0  0  0  0  0  0  0  0  0  0  0  0
    8.2720    2.6427    3.1938 C   0  0  0  0  0  0  0  0  0  0  0  0
    1.7990    1.1839    1.0987 C   0  0  0  0  0  0  0  0  0  0  0  0
    9.7238    2.5730    3.6400 C   0  0  0  0  0  0  0  0  0  0  0  0
    0.8682    0.8062    2.0109 O   0  0  0  0  0  0  0  0  0  0  0  0
    1.3920    1.5158    0.0000 O   0  0  0  0  0  0  0  0  0  0  0  0
    9.9819    3.4747    4.8258 C   0  0  0  0  0  0  0  0  0  0  0  0
  1  2  1  0  0  0  0 
  1  3  1  0  0  0  0 
  2  4  1  0  0  0  0 
  3  5  3  0  0  0  0 
  4  6  1  0  0  0  0 
  5  7  1  0  0  0  0 
  6  8  1  0  0  0  0 
  7  9  1  0  0  0  0 
  7 10  2  0  0  0  0 
  8 11  1  0  0  0  0 
M  END
> <Name>
2-Nonynoic acid

> <Source>
NIST3DMolFile

> <Tox>
3.714

> <CAS>
1846-70-4

$$$$

  CDK

 10  9  0  0  0  0  0  0  0  0999 V2000
    0.8064    2.4310    2.1596 C   0  0  0  0  0  0  0  0  0  0  0  0
    1.3745    1.0374    2.0004 C   0  0  0  0  0  0  0  0  0  0  0  0
    2.6401    1.0403    1.1555 C   0  0  0  0  0  0  0  0  0  0  0  0
    3.7620    1.8024    1.8443 C   0  0  0  0  0  0  0  0  0  0  0  0
    4.9689    1.9594    0.9330 C   0  0  0  0  0  0  0  0  0  0  0  0
    6.0397    2.7480    1.5968 C   0  0  0  0  0  0  0  0  0  0  0  0
    7.3186    2.3592    1.6080 C   0  0  0  0  0  0  0  0  0  0  0  0
    8.3610    3.1736    2.2568 C   0  0  0  0  0  0  0  0  0  0  0  0
    9.6052    2.6370    2.2242 O   0  0  0  0  0  0  0  0  0  0  0  0
    8.2690    4.2548    2.8160 O   0  0  0  0  0  0  0  0  0  0  0  0
  1  2  1  0  0  0  0 
  2  3  1  0  0  0  0 
  3  4  1  0  0  0  0 
  4  5  1  0  0  0  0 
  5  6  1  0  0  0  0 
  6  7  2  0  0  0  0 
  8  7  1  0  0  0  0 
  9  8  1  0  0  0  0 
  8 10  2  0  0  0  0 
M  END
> <Name>
Oct-2-enoic acid (E)

> <Source>
NIST3DMolFile

> <Tox>
3.209

> <CAS>
1871-67-6

$$$$

  CDK

 10 10  0  0  0  0  0  0  0  0999 V2000
    0.0000    0.8546    0.0000 Cl  0  0  0  0  0  0  0  0  0  0  0  0
    1.0054    0.8546    0.0000 C   0  0  0  0  0  0  0  0  0  0  0  0
    1.5081    1.7091    0.0000 C   0  0  0  0  0  0  0  0  0  0  0  0
    1.5081    0.0000    0.0000 C   0  0  0  0  0  0  0  0  0  0  0  0
    2.5134    1.7091    0.0000 C   0  0  0  0  0  0  0  0  0  0  0  0
    2.5134    0.0000    0.0000 C   0  0  0  0  0  0  0  0  0  0  0  0
    3.0161    0.8546    0.0000 C   0  0  0  0  0  0  0  0  0  0  0  0
    3.8707    1.3573    0.0000 C   0  0  0  0  0  0  0  0  0  0  0  0
    4.7253    0.8546    0.0000 C   0  0  0  0  0  0  0  0  0  0  0  0
    5.6301    1.3573    0.0000 O   0  0  0  0  0  0  0  0  0  0  0  0
  1  2  1  0  0  0  0 
  2  3  2  0  0  0  0 
  4  2  1  0  0  0  0 
  3  5  1  0  0  0  0 
  6  4  2  0  0  0  0 
  5  7  2  0  0  0  0 
  7  6  1  0  0  0  0 
  8  7  1  0  0  0  0 
  9  8  1  0  0  0  0 
 10  9  1  0  0  0  0 
M  END
> <Name>
p-Chlorophenethylic alcohol

> <Source>
NIST2DMolFile

> <Tox>
3.320

> <CAS>
1875-88-3

$$$$

  CDK

 13 13  0  0  0  0  0  0  0  0999 V2000
    5.9054    4.0076    1.7959 C   0  0  0  0  0  0  0  0  0  0  0  0
    5.9103    2.6152    1.8590 C   0  0  0  0  0  0  0  0  0  0  0  0
    4.6780    4.6967    1.8686 C   0  0  0  0  0  0  0  0  0  0  0  0
    7.2036    4.7216    1.6512 C   0  0  0  0  0  0  0  0  0  0  0  0
    4.7191    1.9101    1.9806 C   0  0  0  0  0  0  0  0  0  0  0  0
    3.4559    4.0011    2.0274 C   0  0  0  0  0  0  0  0  0  0  0  0
    4.6192    6.0616    1.7736 O   0  0  0  0  0  0  0  0  0  0  0  0
    3.5137    2.6084    2.0575 C   0  0  0  0  0  0  0  0  0  0  0  0
    4.7130    0.4253    2.0317 C   0  0  0  0  0  0  0  0  0  0  0  0
    2.1050    4.6957    2.1266 C   0  0  0  0  0  0  0  0  0  0  0  0
    1.7480    5.2790    0.7570 C   0  0  0  0  0  0  0  0  0  0  0  0
    0.9876    3.7236    2.5330 C   0  0  0  0  0  0  0  0  0  0  0  0
    2.1228    5.8032    3.1853 C   0  0  0  0  0  0  0  0  0  0  0  0
  1  2  2  0  0  0  0 
  3  1  1  0  0  0  0 
  1  4  1  0  0  0  0 
  2  5  1  0  0  0  0 
  6  3  2  0  0  0  0 
  3  7  1  0  0  0  0 
  5  8  2  0  0  0  0 
  5  9  1  0  0  0  0 
  8  6  1  0  0  0  0 
  6 10  1  0  0  0  0 
 10 11  1  0  0  0  0 
 10 12  1  0  0  0  0 
 10 13  1  0  0  0  0 
M  END
> <Name>
Phenol, 2-(1,1-dimethylethyl)-4,6-dimethyl-

> <Source>
NIST3DMolFile

> <Tox>
4.160

> <CAS>
1879-09-0

$$$$

  CDK

 15 16  0  0  0  0  0  0  0  0999 V2000
   -1.1170    3.1283   -0.0790 O   0  0  0  0  0  0  0  0  0  0  0  0
    0.0063    2.3338   -0.4489 C   0  0  0  0  0  0  0  0  0  0  0  0
    0.0353    1.0186    0.3788 C   0  0  0  0  0  0  0  0  0  0  0  0
   -1.1781    0.1634    0.2330 C   0  0  0  0  0  0  0  0  0  0  0  0
    1.3397    0.2425    0.1394 C   0  0  0  0  0  0  0  0  0  0  0  0
   -1.5902   -0.6485    1.2897 C   0  0  0  0  0  0  0  0  0  0  0  0
   -1.9004    0.1753   -0.9601 C   0  0  0  0  0  0  0  0  0  0  0  0
    1.3744   -0.6766   -0.8799 C   0  0  0  0  0  0  0  0  0  0  0  0
    2.4124    0.5021    0.9558 C   0  0  0  0  0  0  0  0  0  0  0  0
   -2.7246   -1.4487    1.1533 C   0  0  0  0  0  0  0  0  0  0  0  0
   -3.0349   -0.6247   -1.0966 C   0  0  0  0  0  0  0  0  0  0  0  0
    2.5584   -1.3815   -1.0969 C   0  0  0  0  0  0  0  0  0  0  0  0
    3.5964   -0.2027    0.7388 C   0  0  0  0  0  0  0  0  0  0  0  0
   -3.4470   -1.4367   -0.0399 C   0  0  0  0  0  0  0  0  0  0  0  0
    3.6694   -1.1445   -0.2876 C   0  0  0  0  0  0  0  0  0  0  0  0
  1  2  1  0  0  0  0 
  3  2  1  0  0  0  0 
  3  4  1  0  0  0  0 
  3  5  1  0  0  0  0 
  4  6  2  0  0  0  0 
  4  7  1  0  0  0  0 
  5  8  2  0  0  0  0 
  5  9  1  0  0  0  0 
  6 10  1  0  0  0  0 
  7 11  2  0  0  0  0 
  8 12  1  0  0  0  0 
  9 13  2  0  0  0  0 
 10 14  2  0  0  0  0 
 11 14  1  0  0  0  0 
 12 15  2  0  0  0  0 
 13 15  1  0  0  0  0 
M  END
> <Name>
2,2-diphenylethanol

> <Source>
Chemidplus3DMolFile

> <Tox>
3.650

> <CAS>
1883-32-5

$$$$

  CDK

  9  9  0  0  0  0  0  0  0  0999 V2000
    0.0000    1.9926    0.0000 C   0  0  0  0  0  0  0  0  0  0  0  0
    0.8967    2.4908    0.0000 C   0  0  0  0  0  0  0  0  0  0  0  0
    0.0000    0.9963    0.0000 C   0  0  0  0  0  0  0  0  0  0  0  0
    1.7435    1.9926    0.0000 C   0  0  0  0  0  0  0  0  0  0  0  0
    0.8967    0.4982    0.0000 C   0  0  0  0  0  0  0  0  0  0  0  0
    1.7435    0.9963    0.0000 C   0  0  0  0  0  0  0  0  0  0  0  0
    2.5904    2.4908    0.0000 N   0  0  0  0  0  0  0  0  0  0  0  0
    2.5904    0.4982    0.0000 C   0  0  0  0  0  0  0  0  0  0  0  0
    3.4871    0.0000    0.0000 N   0  0  0  0  0  0  0  0  0  0  0  0
  1  2  2  0  0  0  0 
  3  1  1  0  0  0  0 
  2  4  1  0  0  0  0 
  5  3  2  0  0  0  0 
  4  6  2  0  0  0  0 
  4  7  1  0  0  0  0 
  6  5  1  0  0  0  0 
  6  8  1  0  0  0  0 
  8  9  3  0  0  0  0 
M  END
> <Name>
2-aminobenzonitrile

> <Source>
NIST2DMolFile

> <Tox>
2.500

> <CAS>
1885-29-6

$$$$

  CDK

 15 15  0  0  0  0  0  0  0  0999 V2000
    1.6995    4.4986    0.0000 O   0  0  0  0  0  0  0  0  0  0  0  0
    2.5992    4.0488    0.0000 N   0  0  0  0  0  0  0  0  0  0  0  0
    3.4489    4.5486    0.0000 O   0  0  0  0  0  0  0  0  0  0  0  0
    2.5992    2.9991    0.0000 C   0  0  0  0  0  0  0  0  0  0  0  0
    1.6995    2.4992    0.0000 C   0  0  0  0  0  0  0  0  0  0  0  0
    3.4489    2.4992    0.0000 C   0  0  0  0  0  0  0  0  0  0  0  0
    0.8497    2.9991    0.0000 Cl  0  0  0  0  0  0  0  0  0  0  0  0
    1.6995    1.4995    0.0000 C   0  0  0  0  0  0  0  0  0  0  0  0
    3.4489    1.4995    0.0000 C   0  0  0  0  0  0  0  0  0  0  0  0
    0.8497    0.9997    0.0000 N   0  0  0  0  0  0  0  0  0  0  0  0
    2.5992    0.9997    0.0000 C   0  0  0  0  0  0  0  0  0  0  0  0
    4.2987    0.9997    0.0000 C   0  0  0  0  0  0  0  0  0  0  0  0
    0.0000    1.4995    0.0000 O   0  0  0  0  0  0  0  0  0  0  0  0
    0.8497    0.0000    0.0000 O   0  0  0  0  0  0  0  0  0  0  0  0
    5.1484    0.4998    0.0000 N   0  0  0  0  0  0  0  0  0  0  0  0
  1  2  2  0  0  0  0 
  2  3  2  0  0  0  0 
  2  4  1  0  0  0  0 
  5  4  2  0  0  0  0 
  4  6  1  0  0  0  0 
  5  7  1  0  0  0  0 
  8  5  1  0  0  0  0 
  6  9  2  0  0  0  0 
  8 10  1  0  0  0  0 
 11  8  2  0  0  0  0 
  9 11  1  0  0  0  0 
  9 12  1  0  0  0  0 
 10 13  2  0  0  0  0 
 10 14  2  0  0  0  0 
 12 15  3  0  0  0  0 
M  END
> <Name>
Benzonitrile, 4-chloro-3,5-dinitro-

> <Source>
NIST2DMolFile

> <Tox>
5.660

> <CAS>
1930-72-9

$$$$

  CDK

  8  7  0  0  0  0  0  0  0  0999 V2000
    4.4799    1.1974    0.9532 O   0  0  0  0  0  0  0  0  0  0  0  0
    3.2263    1.7418    0.9171 C   0  0  0  0  0  0  0  0  0  0  0  0
    5.6026    2.0860    0.9378 C   0  0  0  0  0  0  0  0  0  0  0  0
    2.1485    0.6821    0.9418 C   0  0  0  0  0  0  0  0  0  0  0  0
    3.1129    2.9502    0.8695 O   0  0  0  0  0  0  0  0  0  0  0  0
    6.7866    1.2610    1.0277 C   0  0  0  0  0  0  0  0  0  0  0  0
    0.7554    1.2680    0.9233 C   0  0  0  0  0  0  0  0  0  0  0  0
    7.7708    0.5946    1.1004 C   0  0  0  0  0  0  0  0  0  0  0  0
  1  2  1  0  0  0  0 
  1  3  1  0  0  0  0 
  2  4  1  0  0  0  0 
  2  5  2  0  0  0  0 
  3  6  1  0  0  0  0 
  4  7  1  0  0  0  0 
  6  8  3  0  0  0  0 
M  END
> <Name>
2-Propyn-1-ol, propanoate

> <Source>
NIST3DMolFile

> <Tox>
2.345

> <CAS>
1932-92-9

$$$$

  CDK

  8  7  0  0  0  0  0  0  0  0999 V2000
    2.5877    0.4976    0.0000 C   0  0  0  0  0  0  0  0  0  0  0  0
    3.4834    0.0000    0.0000 C   0  0  0  0  0  0  0  0  0  0  0  0
    1.7417    0.0000    0.0000 C   0  0  0  0  0  0  0  0  0  0  0  0
    4.3294    0.4976    0.0000 C   0  0  0  0  0  0  0  0  0  0  0  0
    0.8957    0.4976    0.0000 C   0  0  0  0  0  0  0  0  0  0  0  0
    5.1754    0.0000    0.0000 C   0  0  0  0  0  0  0  0  0  0  0  0
    0.0000    0.0000    0.0000 O   0  0  0  0  0  0  0  0  0  0  0  0
    6.0711    0.4976    0.0000 Cl  0  0  0  0  0  0  0  0  0  0  0  0
  1  2  1  0  0  0  0 
  1  3  1  0  0  0  0 
  2  4  1  0  0  0  0 
  3  5  1  0  0  0  0 
  4  6  1  0  0  0  0 
  5  7  1  0  0  0  0 
  6  8  1  0  0  0  0 
M  END
> <Name>
1-Hexanol, 6-chloro-

> <Source>
NIST2DMolFile

> <Tox>
2.727

> <CAS>
2009-83-8

$$$$

  CDK

 11 10  0  0  0  0  0  0  0  0999 V2000
    0.0000   -0.6673    0.0000 C   0  0  0  0  0  0  0  0  0  0  0  0
    1.1505   -0.0000    0.0000 C   0  0  0  0  0  0  0  0  0  0  0  0
    2.3010   -0.6673    0.0000 C   0  0  0  0  0  0  0  0  0  0  0  0
    3.4515   -0.0000    0.0000 C   0  0  0  0  0  0  0  0  0  0  0  0
    4.6020   -0.6673    0.0000 C   0  0  0  0  0  0  0  0  0  0  0  0
    5.7525   -0.0000    0.0000 C   0  0  0  0  0  0  0  0  0  0  0  0
    6.9029   -0.6673    0.0000 C   0  0  0  0  0  0  0  0  0  0  0  0
    8.0534   -0.0000    0.0000 C   0  0  0  0  0  0  0  0  0  0  0  0
    9.2039   -0.6673    0.0000 C   0  0  0  0  0  0  0  0  0  0  0  0
   10.3544   -0.0000    0.0000 C   0  0  0  0  0  0  0  0  0  0  0  0
   11.5049   -0.6673    0.0000 N   0  0  0  0  0  0  0  0  0  0  0  0
  1  2  1  0  0  0  0 
  2  3  1  0  0  0  0 
  3  4  1  0  0  0  0 
  4  5  1  0  0  0  0 
  5  6  1  0  0  0  0 
  6  7  1  0  0  0  0 
  7  8  1  0  0  0  0 
  8  9  1  0  0  0  0 
  9 10  1  0  0  0  0 
 10 11  1  0  0  0  0 
M  END
> <Name>
1-Decanamine

> <Source>
DSSTox2DMolFile

> <Tox>
5.056

> <CAS>
2016-57-1

$$$$

  CDK

  8  8  0  0  0  0  0  0  0  0999 V2000
    2.3413   -0.3694    0.0000 N   0  0  0  0  0  0  0  0  0  0  0  0
    3.1202   -1.4466    0.0000 C   0  0  0  0  0  0  0  0  0  0  0  0
    1.0772   -0.7834    0.0000 C   0  0  0  0  0  0  0  0  0  0  0  0
    4.4511   -1.4466    0.0000 Br  0  0  0  0  0  0  0  0  0  0  0  0
    2.3413   -2.5238    0.0000 N   0  0  0  0  0  0  0  0  0  0  0  0
    1.0772   -2.1098    0.0000 C   0  0  0  0  0  0  0  0  0  0  0  0
    0.0000   -0.0000    0.0000 Br  0  0  0  0  0  0  0  0  0  0  0  0
    0.0000   -2.8932    0.0000 Br  0  0  0  0  0  0  0  0  0  0  0  0
  1  2  2  0  0  0  0 
  1  3  1  0  0  0  0 
  2  4  1  0  0  0  0 
  2  5  1  0  0  0  0 
  6  3  2  0  0  0  0 
  3  7  1  0  0  0  0 
  5  6  1  0  0  0  0 
  6  8  1  0  0  0  0 
M  END
> <Name>
1H-Imidazole, 2,4,5-tribromo-

> <Source>
DSSTox2DMolFile

> <Tox>
4.430

> <CAS>
2034-22-2

$$$$

  CDK

 11 11  0  0  0  0  0  0  0  0999 V2000
    2.9999    2.5932    0.0000 C   0  0  0  0  0  0  0  0  0  0  0  0
    2.4915    1.7288    0.0000 C   0  0  0  0  0  0  0  0  0  0  0  0
    2.4915    3.4575    0.0000 C   0  0  0  0  0  0  0  0  0  0  0  0
    4.0169    2.5932    0.0000 C   0  0  0  0  0  0  0  0  0  0  0  0
    1.5254    1.7288    0.0000 C   0  0  0  0  0  0  0  0  0  0  0  0
    2.9999    0.8644    0.0000 N   0  0  0  0  0  0  0  0  0  0  0  0
    1.5254    3.4575    0.0000 C   0  0  0  0  0  0  0  0  0  0  0  0
    1.0169    2.5932    0.0000 C   0  0  0  0  0  0  0  0  0  0  0  0
    4.0169    0.8644    0.0000 O   0  0  0  0  0  0  0  0  0  0  0  0
    2.4915    0.0000    0.0000 O   0  0  0  0  0  0  0  0  0  0  0  0
    0.0000    2.5932    0.0000 O   0  0  0  0  0  0  0  0  0  0  0  0
  2  1  2  0  0  0  0 
  1  3  1  0  0  0  0 
  1  4  1  0  0  0  0 
  5  2  1  0  0  0  0 
  2  6  1  0  0  0  0 
  3  7  2  0  0  0  0 
  8  5  2  0  0  0  0 
  6  9  2  0  0  0  0 
  6 10  2  0  0  0  0 
  7  8  1  0  0  0  0 
  8 11  1  0  0  0  0 
M  END
> <Name>
3-Nitro-p-cresol

> <Source>
NIST2DMolFile

> <Tox>
3.740

> <CAS>
2042-14-0

$$$$

  CDK

 11 11  0  0  0  0  0  0  0  0999 V2000
    4.0809    3.4259    0.0000 C   0  0  0  0  0  0  0  0  0  0  0  0
    3.5770    2.5694    0.0000 C   0  0  0  0  0  0  0  0  0  0  0  0
    5.0381    3.4259    0.0000 C   0  0  0  0  0  0  0  0  0  0  0  0
    4.0809    1.6626    0.0000 C   0  0  0  0  0  0  0  0  0  0  0  0
    2.5694    2.5694    0.0000 C   0  0  0  0  0  0  0  0  0  0  0  0
    5.5419    2.5694    0.0000 C   0  0  0  0  0  0  0  0  0  0  0  0
    5.0381    1.6626    0.0000 C   0  0  0  0  0  0  0  0  0  0  0  0
    2.0656    1.6626    0.0000 C   0  0  0  0  0  0  0  0  0  0  0  0
    1.0580    1.6626    0.0000 C   0  0  0  0  0  0  0  0  0  0  0  0
    0.5542    0.8565    0.0000 C   0  0  0  0  0  0  0  0  0  0  0  0
    0.0000    0.0000    0.0000 N   0  0  0  0  0  0  0  0  0  0  0  0
  1  2  2  0  0  0  0 
  3  1  1  0  0  0  0 
  2  4  1  0  0  0  0 
  2  5  1  0  0  0  0 
  6  3  2  0  0  0  0 
  4  7  2  0  0  0  0 
  5  8  1  0  0  0  0 
  7  6  1  0  0  0  0 
  8  9  1  0  0  0  0 
  9 10  1  0  0  0  0 
 10 11  3  0  0  0  0 
M  END
> <Name>
Butyronitrile, 4-phenyl- (8CI)

> <Source>
NIST2DMolFile

> <Tox>
3.150

> <CAS>
2046-18-6

$$$$

  CDK

 14 13  0  0  0  0  0  0  0  0999 V2000
    6.2222    4.3275    2.1936 C   0  0  0  0  0  0  0  0  0  0  0  0
    4.7186    4.3396    1.9361 C   0  0  0  0  0  0  0  0  0  0  0  0
    6.9908    4.2136    1.0762 O   0  0  0  0  0  0  0  0  0  0  0  0
    6.7368    4.3871    3.2929 O   0  0  0  0  0  0  0  0  0  0  0  0
    4.2630    5.6969    1.4190 C   0  0  0  0  0  0  0  0  0  0  0  0
    4.2596    3.2408    0.9712 C   0  0  0  0  0  0  0  0  0  0  0  0
    8.4090    4.2870    1.1839 C   0  0  0  0  0  0  0  0  0  0  0  0
    2.9778    6.1362    1.5598 O   0  0  0  0  0  0  0  0  0  0  0  0
    4.9111    6.5495    0.8542 O   0  0  0  0  0  0  0  0  0  0  0  0
    4.4876    1.8865    1.5456 C   0  0  0  0  0  0  0  0  0  0  0  0
    8.9141    5.7121    1.2924 C   0  0  0  0  0  0  0  0  0  0  0  0
    2.0335    5.2566    2.1665 C   0  0  0  0  0  0  0  0  0  0  0  0
    3.5172    0.9928    1.6943 C   0  0  0  0  0  0  0  0  0  0  0  0
    0.7707    6.0503    2.4229 C   0  0  0  0  0  0  0  0  0  0  0  0
  1  2  1  0  0  0  0 
  1  3  1  0  0  0  0 
  1  4  2  0  0  0  0 
  2  5  1  0  0  0  0 
  2  6  1  0  0  0  0 
  3  7  1  0  0  0  0 
  5  8  1  0  0  0  0 
  5  9  2  0  0  0  0 
  6 10  1  0  0  0  0 
  7 11  1  0  0  0  0 
  8 12  1  0  0  0  0 
 10 13  2  0  0  0  0 
 12 14  1  0  0  0  0 
M  END
> <Name>
Propanedioic acid, 2-propenyl-, diethyl ester

> <Source>
NIST3DMolFile

> <Tox>
2.944

> <CAS>
2049-80-1

$$$$

  CDK

 14 14  0  0  0  0  0  0  0  0999 V2000
    3.4381    1.5446    0.0000 O   0  0  0  0  0  0  0  0  0  0  0  0
    2.5412    1.9931    0.0000 C   0  0  0  0  0  0  0  0  0  0  0  0
    4.2851    2.0429    0.0000 C   0  0  0  0  0  0  0  0  0  0  0  0
    2.5412    3.0394    0.0000 O   0  0  0  0  0  0  0  0  0  0  0  0
    1.7439    1.4948    0.0000 C   0  0  0  0  0  0  0  0  0  0  0  0
    5.1820    1.5446    0.0000 C   0  0  0  0  0  0  0  0  0  0  0  0
    0.8471    1.9931    0.0000 C   0  0  0  0  0  0  0  0  0  0  0  0
    1.7439    0.4983    0.0000 C   0  0  0  0  0  0  0  0  0  0  0  0
    6.0290    2.0429    0.0000 C   0  0  0  0  0  0  0  0  0  0  0  0
    0.0000    1.4948    0.0000 C   0  0  0  0  0  0  0  0  0  0  0  0
    0.8471    0.0000    0.0000 C   0  0  0  0  0  0  0  0  0  0  0  0
    6.9259    1.5446    0.0000 C   0  0  0  0  0  0  0  0  0  0  0  0
    0.0000    0.4983    0.0000 C   0  0  0  0  0  0  0  0  0  0  0  0
    7.7730    2.0429    0.0000 C   0  0  0  0  0  0  0  0  0  0  0  0
  1  2  1  0  0  0  0 
  1  3  1  0  0  0  0 
  2  4  2  0  0  0  0 
  2  5  1  0  0  0  0 
  3  6  1  0  0  0  0 
  7  5  2  0  0  0  0 
  5  8  1  0  0  0  0 
  6  9  1  0  0  0  0 
 10  7  1  0  0  0  0 
  8 11  2  0  0  0  0 
  9 12  1  0  0  0  0 
 13 10  2  0  0  0  0 
 11 13  1  0  0  0  0 
 12 14  1  0  0  0  0 
M  END
> <Name>
Benzoic acid, pentyl ester

> <Source>
NIST2DMolFile

> <Tox>
4.370

> <CAS>
2049-96-9

$$$$

  CDK

 15 14  0  0  0  0  0  0  0  0999 V2000
    6.9927    0.0507    0.0000 C   0  0  0  0  0  0  0  0  0  0  0  0
    6.1313    0.5067    0.0000 C   0  0  0  0  0  0  0  0  0  0  0  0
    7.9048    0.5067    0.0000 C   0  0  0  0  0  0  0  0  0  0  0  0
    5.2699    0.0000    0.0000 C   0  0  0  0  0  0  0  0  0  0  0  0
    8.7663    0.0507    0.0000 O   0  0  0  0  0  0  0  0  0  0  0  0
    7.9048    1.4695    0.0000 O   0  0  0  0  0  0  0  0  0  0  0  0
    4.3578    0.5067    0.0000 C   0  0  0  0  0  0  0  0  0  0  0  0
    9.6277    0.5067    0.0000 C   0  0  0  0  0  0  0  0  0  0  0  0
    3.4964    0.0000    0.0000 C   0  0  0  0  0  0  0  0  0  0  0  0
   10.5398    0.0507    0.0000 C   0  0  0  0  0  0  0  0  0  0  0  0
    2.6349    0.5067    0.0000 C   0  0  0  0  0  0  0  0  0  0  0  0
    1.7228    0.0507    0.0000 O   0  0  0  0  0  0  0  0  0  0  0  0
    2.6349    1.5202    0.0000 O   0  0  0  0  0  0  0  0  0  0  0  0
    0.8614    0.5574    0.0000 C   0  0  0  0  0  0  0  0  0  0  0  0
    0.0000    0.0507    0.0000 C   0  0  0  0  0  0  0  0  0  0  0  0
  1  2  1  0  0  0  0 
  1  3  1  0  0  0  0 
  2  4  1  0  0  0  0 
  3  5  1  0  0  0  0 
  3  6  2  0  0  0  0 
  4  7  1  0  0  0  0 
  8  5  1  0  0  0  0 
  7  9  1  0  0  0  0 
  8 10  1  0  0  0  0 
  9 11  1  0  0  0  0 
 11 12  1  0  0  0  0 
 11 13  2  0  0  0  0 
 14 12  1  0  0  0  0 
 14 15  1  0  0  0  0 
M  END
> <Name>
Heptanedioic acid, diethyl ester

> <Source>
NIST2DMolFile

> <Tox>
3.407

> <CAS>
2050-20-6

$$$$

  CDK

 16 15  0  0  0  0  0  0  0  0999 V2000
    0.0000    0.9720    0.0000 C   0  0  0  0  0  0  0  0  0  0  0  0
    0.8697    1.4324    0.0000 C   0  0  0  0  0  0  0  0  0  0  0  0
    1.7905    0.9720    0.0000 O   0  0  0  0  0  0  0  0  0  0  0  0
    2.6601    1.4324    0.0000 C   0  0  0  0  0  0  0  0  0  0  0  0
    3.5810    0.9720    0.0000 C   0  0  0  0  0  0  0  0  0  0  0  0
    2.6601    2.4555    0.0000 O   0  0  0  0  0  0  0  0  0  0  0  0
    4.4506    1.4324    0.0000 C   0  0  0  0  0  0  0  0  0  0  0  0
    5.3715    0.9720    0.0000 C   0  0  0  0  0  0  0  0  0  0  0  0
    6.1900    1.4324    0.0000 C   0  0  0  0  0  0  0  0  0  0  0  0
    7.1108    0.9720    0.0000 C   0  0  0  0  0  0  0  0  0  0  0  0
    7.9804    1.4324    0.0000 C   0  0  0  0  0  0  0  0  0  0  0  0
    8.9013    1.0231    0.0000 C   0  0  0  0  0  0  0  0  0  0  0  0
    9.7709    1.4324    0.0000 O   0  0  0  0  0  0  0  0  0  0  0  0
    8.9013    0.0000    0.0000 O   0  0  0  0  0  0  0  0  0  0  0  0
   10.6918    1.0231    0.0000 C   0  0  0  0  0  0  0  0  0  0  0  0
   11.5614    1.4835    0.0000 C   0  0  0  0  0  0  0  0  0  0  0  0
  1  2  1  0  0  0  0 
  2  3  1  0  0  0  0 
  3  4  1  0  0  0  0 
  4  5  1  0  0  0  0 
  4  6  2  0  0  0  0 
  5  7  1  0  0  0  0 
  7  8  1  0  0  0  0 
  8  9  1  0  0  0  0 
  9 10  1  0  0  0  0 
 11 10  1  0  0  0  0 
 12 11  1  0  0  0  0 
 13 12  1  0  0  0  0 
 12 14  2  0  0  0  0 
 15 13  1  0  0  0  0 
 16 15  1  0  0  0  0 
M  END
> <Name>
Octanedioic acid, diethyl ester

> <Source>
NIST2DMolFile

> <Tox>
3.702

> <CAS>
2050-23-9

$$$$

  CDK

 11 10  0  0  0  0  0  0  0  0999 V2000
    3.8138    1.9926    2.8395 C   0  0  0  0  0  0  0  0  0  0  0  0
    4.5044    1.0537    3.8367 C   0  0  0  0  0  0  0  0  0  0  0  0
    2.4871    1.4342    2.3464 C   0  0  0  0  0  0  0  0  0  0  0  0
    6.0015    1.3781    3.9871 C   0  0  0  0  0  0  0  0  0  0  0  0
    3.8002    1.1496    5.0621 O   0  0  0  0  0  0  0  0  0  0  0  0
    1.7382    2.4507    1.4979 C   0  0  0  0  0  0  0  0  0  0  0  0
    6.2811    2.7577    4.5592 C   0  0  0  0  0  0  0  0  0  0  0  0
    1.3205    3.6655    2.3134 C   0  0  0  0  0  0  0  0  0  0  0  0
    7.7654    2.9927    4.7279 C   0  0  0  0  0  0  0  0  0  0  0  0
    0.7617    4.7811    1.4451 C   0  0  0  0  0  0  0  0  0  0  0  0
    1.8392    5.4964    0.6605 C   0  0  0  0  0  0  0  0  0  0  0  0
  1  2  1  0  0  0  0 
  1  3  1  0  0  0  0 
  2  4  1  0  0  0  0 
  2  5  1  0  0  0  0 
  3  6  1  0  0  0  0 
  4  7  1  0  0  0  0 
  6  8  1  0  0  0  0 
  7  9  1  0  0  0  0 
  8 10  1  0  0  0  0 
 10 11  1  0  0  0  0 
M  END
> <Name>
Decan-4-ol

> <Source>
NIST3DMolFile

> <Tox>
3.850

> <CAS>
2051-31-2

$$$$

  CDK

  9  8  0  0  0  0  0  0  0  0999 V2000
    0.3634    0.5002   -0.0781 C   0  0  0  0  0  0  0  0  0  0  0  0
    1.4821   -0.5100   -0.1865 C   0  0  0  0  0  0  0  0  0  0  0  0
    0.4314    1.7128   -0.0408 O   0  0  0  0  0  0  0  0  0  0  0  0
   -0.8637   -0.0991   -0.0331 O   0  0  0  0  0  0  0  0  0  0  0  0
    2.8345    0.0798    0.1797 C   0  0  0  0  0  0  0  0  0  0  0  0
   -2.0209    0.7322    0.0422 C   0  0  0  0  0  0  0  0  0  0  0  0
    3.9308   -0.9518    0.0359 C   0  0  0  0  0  0  0  0  0  0  0  0
   -3.2502   -0.1129    0.0655 C   0  0  0  0  0  0  0  0  0  0  0  0
   -3.3031   -1.4381    0.0199 C   0  0  0  0  0  0  0  0  0  0  0  0
  1  2  1  0  0  0  0 
  1  3  2  0  0  0  0 
  1  4  1  0  0  0  0 
  2  5  1  0  0  0  0 
  4  6  1  0  0  0  0 
  5  7  1  0  0  0  0 
  6  8  1  0  0  0  0 
  8  9  2  0  0  0  0 
M  END
> <Name>
Butanoic acid, 2-propenyl ester

> <Source>
DougDB3DMolFile

> <Tox>
2.365

> <CAS>
2051-78-7

$$$$

  CDK

  7  6  0  0  0  0  0  0  0  0999 V2000
    1.0216    0.9705    0.0000 C   0  0  0  0  0  0  0  0  0  0  0  0
    1.9922    0.9705    0.0000 C   0  0  0  0  0  0  0  0  0  0  0  0
    0.0000    0.9705    0.0000 C   0  0  0  0  0  0  0  0  0  0  0  0
    1.0216    0.0000    0.0000 C   0  0  0  0  0  0  0  0  0  0  0  0
    1.0216    1.9922    0.0000 Br  0  0  0  0  0  0  0  0  0  0  0  0
    2.5030    1.8900    0.0000 O   0  0  0  0  0  0  0  0  0  0  0  0
    2.5030    0.1532    0.0000 O   0  0  0  0  0  0  0  0  0  0  0  0
  1  2  1  0  0  0  0 
  1  3  1  0  0  0  0 
  1  4  1  0  0  0  0 
  1  5  1  0  0  0  0 
  2  6  1  0  0  0  0 
  2  7  2  0  0  0  0 
M  END
> <Name>
Propionic acid, 2-bromo-2-methyl- (8CI)

> <Source>
NIST2DMolFile

> <Tox>
2.416

> <CAS>
2052-01-9

$$$$

  CDK

  8  7  0  0  0  0  0  0  0  0999 V2000
    0.8215    1.0269    0.0000 C   0  0  0  0  0  0  0  0  0  0  0  0
    1.7457    1.4889    0.0000 C   0  0  0  0  0  0  0  0  0  0  0  0
    0.0000    1.4889    0.0000 Br  0  0  0  0  0  0  0  0  0  0  0  0
    2.6185    1.0269    0.0000 C   0  0  0  0  0  0  0  0  0  0  0  0
    3.4913    1.4889    0.0000 C   0  0  0  0  0  0  0  0  0  0  0  0
    4.4155    1.0269    0.0000 C   0  0  0  0  0  0  0  0  0  0  0  0
    5.2883    1.4889    0.0000 O   0  0  0  0  0  0  0  0  0  0  0  0
    4.3642    0.0000    0.0000 O   0  0  0  0  0  0  0  0  0  0  0  0
  1  2  1  0  0  0  0 
  1  3  1  0  0  0  0 
  2  4  1  0  0  0  0 
  4  5  1  0  0  0  0 
  5  6  1  0  0  0  0 
  6  7  1  0  0  0  0 
  6  8  2  0  0  0  0 
M  END
> <Name>
Pentanoic acid, 5-bromo-

> <Source>
NIST2DMolFile

> <Tox>
2.307

> <CAS>
2067-33-6

$$$$

  CDK

 15 16  0  0  0  0  0  0  0  0999 V2000
    0.0000    1.4980    0.0000 C   0  0  0  0  0  0  0  0  0  0  0  0
    0.8988    1.9973    0.0000 C   0  0  0  0  0  0  0  0  0  0  0  0
    0.0000    0.4993    0.0000 C   0  0  0  0  0  0  0  0  0  0  0  0
    1.7477    1.4980    0.0000 C   0  0  0  0  0  0  0  0  0  0  0  0
    0.8988    0.0000    0.0000 C   0  0  0  0  0  0  0  0  0  0  0  0
    1.7477    0.4993    0.0000 C   0  0  0  0  0  0  0  0  0  0  0  0
    2.5965    1.9973    0.0000 C   0  0  0  0  0  0  0  0  0  0  0  0
    3.4454    1.4980    0.0000 C   0  0  0  0  0  0  0  0  0  0  0  0
    2.5965    2.9960    0.0000 C   0  0  0  0  0  0  0  0  0  0  0  0
    4.3442    1.9973    0.0000 C   0  0  0  0  0  0  0  0  0  0  0  0
    3.4454    3.4953    0.0000 C   0  0  0  0  0  0  0  0  0  0  0  0
    4.3442    2.9960    0.0000 C   0  0  0  0  0  0  0  0  0  0  0  0
    5.1931    1.4980    0.0000 N   0  0  0  0  0  0  0  0  0  0  0  0
    5.1931    0.4993    0.0000 O   0  0  0  0  0  0  0  0  0  0  0  0
    6.0419    1.9973    0.0000 O   0  0  0  0  0  0  0  0  0  0  0  0
  1  2  2  0  0  0  0 
  3  1  1  0  0  0  0 
  2  4  1  0  0  0  0 
  5  3  2  0  0  0  0 
  4  6  2  0  0  0  0 
  4  7  1  0  0  0  0 
  6  5  1  0  0  0  0 
  8  7  2  0  0  0  0 
  7  9  1  0  0  0  0 
 10  8  1  0  0  0  0 
  9 11  2  0  0  0  0 
 12 10  2  0  0  0  0 
 10 13  1  0  0  0  0 
 11 12  1  0  0  0  0 
 13 14  2  0  0  0  0 
 13 15  2  0  0  0  0 
M  END
> <Name>
1,1'-Biphenyl, 3-nitro- (9CI)

> <Source>
NIST2DMolFile

> <Tox>
4.570

> <CAS>
2113-58-8

$$$$

  CDK

 13 14  0  0  0  0  0  0  0  0999 V2000
    2.9472   -1.1737    0.5149 C   0  0  0  0  0  0  0  0  0  0  0  0
    1.7962   -1.1991   -0.2717 C   0  0  0  0  0  0  0  0  0  0  0  0
    3.5147   -0.0093    0.9052 N   0  0  0  0  0  0  0  0  0  0  0  0
    1.2144    0.0071   -0.6662 C   0  0  0  0  0  0  0  0  0  0  0  0
    2.9549    1.1631    0.5281 C   0  0  0  0  0  0  0  0  0  0  0  0
    1.8038    1.2049   -0.2578 C   0  0  0  0  0  0  0  0  0  0  0  0
   -0.0191    0.0156   -1.5129 C   0  0  0  0  0  0  0  0  0  0  0  0
   -1.2514    0.0069   -0.6630 C   0  0  0  0  0  0  0  0  0  0  0  0
   -1.8347    1.2089   -0.2597 C   0  0  0  0  0  0  0  0  0  0  0  0
   -1.8256   -1.2034   -0.2719 C   0  0  0  0  0  0  0  0  0  0  0  0
   -2.9824    1.1985    0.5247 C   0  0  0  0  0  0  0  0  0  0  0  0
   -2.9735   -1.2097    0.5123 C   0  0  0  0  0  0  0  0  0  0  0  0
   -3.5533   -0.0097    0.9106 C   0  0  0  0  0  0  0  0  0  0  0  0
  1  2  1  0  0  0  0 
  1  3  2  0  0  0  0 
  2  4  2  0  0  0  0 
  5  3  1  0  0  0  0 
  4  6  1  0  0  0  0 
  4  7  1  0  0  0  0 
  6  5  2  0  0  0  0 
  7  8  1  0  0  0  0 
  8  9  1  0  0  0  0 
  8 10  2  0  0  0  0 
  9 11  2  0  0  0  0 
 12 10  1  0  0  0  0 
 11 13  1  0  0  0  0 
 13 12  2  0  0  0  0 
M  END
> <Name>
Pyridine, 4-(phenylmethyl)-

> <Source>
DougDB3DMolFile

> <Tox>
3.630

> <CAS>
2116-65-6

$$$$

  CDK

  9  9  0  0  0  0  0  0  0  0999 V2000
    4.6082   -0.0000    0.0000 O   0  0  0  0  0  0  0  0  0  0  0  0
    3.4561   -0.6636    0.0000 C   0  0  0  0  0  0  0  0  0  0  0  0
    3.4561   -1.9953    0.0000 C   0  0  0  0  0  0  0  0  0  0  0  0
    2.3041   -0.0000    0.0000 C   0  0  0  0  0  0  0  0  0  0  0  0
    4.6082   -2.6589    0.0000 O   0  0  0  0  0  0  0  0  0  0  0  0
    2.3041   -2.6589    0.0000 C   0  0  0  0  0  0  0  0  0  0  0  0
    1.1520   -0.6636    0.0000 C   0  0  0  0  0  0  0  0  0  0  0  0
    1.1520   -1.9953    0.0000 C   0  0  0  0  0  0  0  0  0  0  0  0
    0.0000   -2.6589    0.0000 Cl  0  0  0  0  0  0  0  0  0  0  0  0
  1  2  1  0  0  0  0 
  2  3  2  0  0  0  0 
  2  4  1  0  0  0  0 
  3  5  1  0  0  0  0 
  3  6  1  0  0  0  0 
  7  4  2  0  0  0  0 
  6  8  2  0  0  0  0 
  8  7  1  0  0  0  0 
  8  9  1  0  0  0  0 
M  END
> <Name>
1,2-Benzenediol, 4-chloro-

> <Source>
DSSTox2DMolFile

> <Tox>
4.060

> <CAS>
2138-22-9

$$$$

  CDK

 11 11  0  0  0  0  0  0  0  0999 V2000
    3.0034    0.8654    0.0000 C   0  0  0  0  0  0  0  0  0  0  0  0
    2.0362    0.8654    0.0000 C   0  0  0  0  0  0  0  0  0  0  0  0
    3.5125    1.6799    0.0000 C   0  0  0  0  0  0  0  0  0  0  0  0
    3.5125    0.0000    0.0000 O   0  0  0  0  0  0  0  0  0  0  0  0
    1.5272    1.6799    0.0000 C   0  0  0  0  0  0  0  0  0  0  0  0
    1.5272    0.0000    0.0000 O   0  0  0  0  0  0  0  0  0  0  0  0
    3.0034    2.5962    0.0000 C   0  0  0  0  0  0  0  0  0  0  0  0
    4.5306    1.6799    0.0000 O   0  0  0  0  0  0  0  0  0  0  0  0
    2.0362    2.5962    0.0000 C   0  0  0  0  0  0  0  0  0  0  0  0
    0.5091    1.6799    0.0000 C   0  0  0  0  0  0  0  0  0  0  0  0
    0.0000    2.5453    0.0000 O   0  0  0  0  0  0  0  0  0  0  0  0
  2  1  2  0  0  0  0 
  1  3  1  0  0  0  0 
  1  4  1  0  0  0  0 
  5  2  1  0  0  0  0 
  2  6  1  0  0  0  0 
  3  7  2  0  0  0  0 
  3  8  1  0  0  0  0 
  9  5  2  0  0  0  0 
  5 10  1  0  0  0  0 
  7  9  1  0  0  0  0 
 10 11  2  0  0  0  0 
M  END
> <Name>
Benzaldehyde, 2,3,4-trihydroxy-

> <Source>
NIST2DMolFile

> <Tox>
3.001

> <CAS>
2144-08-3

$$$$

  CDK

 12 12  0  0  0  0  0  0  0  0999 V2000
    2.6058    2.5056    0.0000 C   0  0  0  0  0  0  0  0  0  0  0  0
    3.4577    3.0067    0.0000 C   0  0  0  0  0  0  0  0  0  0  0  0
    2.6058    1.5535    0.0000 C   0  0  0  0  0  0  0  0  0  0  0  0
    1.7038    3.0067    0.0000 C   0  0  0  0  0  0  0  0  0  0  0  0
    4.3096    2.5557    0.0000 O   0  0  0  0  0  0  0  0  0  0  0  0
    3.4577    4.0591    0.0000 O   0  0  0  0  0  0  0  0  0  0  0  0
    1.7038    1.0022    0.0000 C   0  0  0  0  0  0  0  0  0  0  0  0
    0.8519    2.5056    0.0000 C   0  0  0  0  0  0  0  0  0  0  0  0
    5.2116    3.0067    0.0000 C   0  0  0  0  0  0  0  0  0  0  0  0
    0.8519    1.5535    0.0000 C   0  0  0  0  0  0  0  0  0  0  0  0
    1.7038    0.0000    0.0000 O   0  0  0  0  0  0  0  0  0  0  0  0
    0.0000    3.0067    0.0000 O   0  0  0  0  0  0  0  0  0  0  0  0
  1  2  1  0  0  0  0 
  1  3  2  0  0  0  0 
  4  1  1  0  0  0  0 
  2  5  1  0  0  0  0 
  2  6  2  0  0  0  0 
  3  7  1  0  0  0  0 
  8  4  2  0  0  0  0 
  5  9  1  0  0  0  0 
  7 10  2  0  0  0  0 
  7 11  1  0  0  0  0 
 10  8  1  0  0  0  0 
  8 12  1  0  0  0  0 
M  END
> <Name>
Benzoic acid, 3,5-dihydroxy-, methyl ester

> <Source>
NIST2DMolFile

> <Tox>
2.860

> <CAS>
2150-44-9

$$$$

  CDK

 10  9  0  0  0  0  0  0  0  0999 V2000
    4.3115    1.5040    0.0000 C   0  0  0  0  0  0  0  0  0  0  0  0
    3.4592    1.0027    0.0000 S   0  0  0  0  0  0  0  0  0  0  0  0
    5.2139    1.0027    0.0000 C   0  0  0  0  0  0  0  0  0  0  0  0
    2.6069    1.5040    0.0000 C   0  0  0  0  0  0  0  0  0  0  0  0
    3.4592    0.0000    0.0000 O   0  0  0  0  0  0  0  0  0  0  0  0
    6.0661    1.5040    0.0000 C   0  0  0  0  0  0  0  0  0  0  0  0
    1.7045    1.0027    0.0000 C   0  0  0  0  0  0  0  0  0  0  0  0
    6.9184    1.0027    0.0000 C   0  0  0  0  0  0  0  0  0  0  0  0
    0.8523    1.5040    0.0000 C   0  0  0  0  0  0  0  0  0  0  0  0
    0.0000    1.0027    0.0000 C   0  0  0  0  0  0  0  0  0  0  0  0
  1  2  1  0  0  0  0 
  1  3  1  0  0  0  0 
  2  4  1  0  0  0  0 
  2  5  2  0  0  0  0 
  3  6  1  0  0  0  0 
  4  7  1  0  0  0  0 
  6  8  1  0  0  0  0 
  7  9  1  0  0  0  0 
  9 10  1  0  0  0  0 
M  END
> <Name>
Butane, 1,1'-sulfinylbis-

> <Source>
NIST2DMolFile

> <Tox>
2.743

> <CAS>
2168-93-6

$$$$

  CDK

 11 11  0  0  0  0  0  0  0  0999 V2000
    3.9904   -2.3039    0.0000 N   0  0  0  0  0  0  0  0  0  0  0  0
    3.3268   -3.4558    0.0000 C   0  0  0  0  0  0  0  0  0  0  0  0
    3.3268   -1.1519    0.0000 C   0  0  0  0  0  0  0  0  0  0  0  0
    3.9904   -4.6078    0.0000 Cl  0  0  0  0  0  0  0  0  0  0  0  0
    1.9952   -3.4558    0.0000 C   0  0  0  0  0  0  0  0  0  0  0  0
    1.9952   -1.1519    0.0000 C   0  0  0  0  0  0  0  0  0  0  0  0
    3.9904   -0.0000    0.0000 Cl  0  0  0  0  0  0  0  0  0  0  0  0
    1.3317   -4.6078    0.0000 Cl  0  0  0  0  0  0  0  0  0  0  0  0
    1.3317   -2.3039    0.0000 C   0  0  0  0  0  0  0  0  0  0  0  0
    1.3317   -0.0000    0.0000 Cl  0  0  0  0  0  0  0  0  0  0  0  0
    0.0000   -2.3039    0.0000 Cl  0  0  0  0  0  0  0  0  0  0  0  0
  1  2  2  0  0  0  0 
  1  3  1  0  0  0  0 
  2  4  1  0  0  0  0 
  2  5  1  0  0  0  0 
  6  3  2  0  0  0  0 
  3  7  1  0  0  0  0 
  5  8  1  0  0  0  0 
  5  9  2  0  0  0  0 
  9  6  1  0  0  0  0 
  6 10  1  0  0  0  0 
  9 11  1  0  0  0  0 
M  END
> <Name>
Pyridine, 2,3,4,5,6-pentachloro-

> <Source>
DSSTox2DMolFile

> <Tox>
4.710

> <CAS>
2176-62-7

$$$$

  CDK

  7  6  0  0  0  0  0  0  0  0999 V2000
    0.5180    0.1950    0.0000 C   0  0  0  0  0  0  0  0  0  0  0  0
    1.6540   -0.7549    0.0001 C   0  0  0  0  0  0  0  0  0  0  0  0
    0.5520    1.4097    0.0000 O   0  0  0  0  0  0  0  0  0  0  0  0
   -0.6888   -0.4626    0.0000 O   0  0  0  0  0  0  0  0  0  0  0  0
    2.9155   -0.3334   -0.0001 C   0  0  0  0  0  0  0  0  0  0  0  0
   -1.8686    0.2649    0.0001 C   0  0  0  0  0  0  0  0  0  0  0  0
   -2.9978   -0.4439   -0.0001 C   0  0  0  0  0  0  0  0  0  0  0  0
  1  2  1  0  0  0  0 
  1  3  2  0  0  0  0 
  1  4  1  0  0  0  0 
  2  5  2  0  0  0  0 
  4  6  1  0  0  0  0 
  6  7  2  0  0  0  0 
M  END
> <Name>
Acrylic acid, vinyl ester (6CI,7CI,8CI)

> <Source>
DougDB3DMolFile

> <Tox>
4.420

> <CAS>
2177-18-6

$$$$

  CDK

  9  8  0  0  0  0  0  0  0  0999 V2000
    2.2992   -1.9954    0.0000 C   0  0  0  0  0  0  0  0  0  0  0  0
    2.2992   -3.3210    0.0000 O   0  0  0  0  0  0  0  0  0  0  0  0
    3.4522   -1.3257    0.0000 O   0  0  0  0  0  0  0  0  0  0  0  0
    1.1530   -1.3257    0.0000 C   0  0  0  0  0  0  0  0  0  0  0  0
    4.6053   -1.9954    0.0000 C   0  0  0  0  0  0  0  0  0  0  0  0
    0.0000   -1.9954    0.0000 C   0  0  0  0  0  0  0  0  0  0  0  0
    1.1530   -0.0000    0.0000 C   0  0  0  0  0  0  0  0  0  0  0  0
    5.7514   -1.3257    0.0000 C   0  0  0  0  0  0  0  0  0  0  0  0
    6.9045   -1.9954    0.0000 C   0  0  0  0  0  0  0  0  0  0  0  0
  1  2  2  0  0  0  0 
  1  3  1  0  0  0  0 
  1  4  1  0  0  0  0 
  3  5  1  0  0  0  0 
  4  6  1  0  0  0  0 
  4  7  2  0  0  0  0 
  5  8  1  0  0  0  0 
  8  9  1  0  0  0  0 
M  END
> <Name>
2-Propenoic acid, 2-methyl-, propyl ester

> <Source>
DSSTox2DMolFile

> <Tox>
2.350

> <CAS>
2210-28-8

$$$$

  CDK

 12 13  0  0  0  0  0  0  0  0999 V2000
    0.0000    0.0000    0.0000 C   0  0  0  0  0  0  0  0  0  0  0  0
    1.3000    0.5200   -0.0800 O   0  0  0  0  0  0  0  0  0  0  0  0
    1.4400    1.8400   -0.1200 C   0  0  0  0  0  0  0  0  0  0  0  0
    2.7200    2.4400   -0.1400 C   0  0  0  0  0  0  0  0  0  0  0  0
    0.3000    2.6400   -0.1200 C   0  0  0  0  0  0  0  0  0  0  0  0
    2.8200    3.8800   -0.2000 C   0  0  0  0  0  0  0  0  0  0  0  0
    3.8800    1.6600   -0.1400 C   0  0  0  0  0  0  0  0  0  0  0  0
    0.4000    4.0400   -0.1800 C   0  0  0  0  0  0  0  0  0  0  0  0
    1.6600    4.6600   -0.2000 C   0  0  0  0  0  0  0  0  0  0  0  0
    4.0800    4.4800   -0.2200 C   0  0  0  0  0  0  0  0  0  0  0  0
    5.1400    2.2800   -0.1600 C   0  0  0  0  0  0  0  0  0  0  0  0
    5.2400    3.6800   -0.2200 C   0  0  0  0  0  0  0  0  0  0  0  0
  1  2  1  0  0  0  0 
  2  3  1  0  0  0  0 
  3  4  2  0  0  0  0 
  3  5  1  0  0  0  0 
  4  6  1  0  0  0  0 
  4  7  1  0  0  0  0 
  8  5  2  0  0  0  0 
  6  9  2  0  0  0  0 
  6 10  1  0  0  0  0 
 11  7  2  0  0  0  0 
  9  8  1  0  0  0  0 
 10 12  2  0  0  0  0 
 12 11  1  0  0  0  0 
M  END
> <Name>
Methyl 1-naphthyl ether

> <Source>
NIH3DMolFile

> <Tox>
3.800

> <CAS>
2216-69-5

$$$$

  CDK

 13 13  0  0  0  0  0  0  0  0999 V2000
   10.3549    2.3540    1.5320 C   0  0  0  0  0  0  0  0  0  0  0  0
    9.0726    1.8315    1.4058 C   0  0  0  0  0  0  0  0  0  0  0  0
   10.5539    3.7309    1.5044 C   0  0  0  0  0  0  0  0  0  0  0  0
    7.9854    2.6979    1.2526 C   0  0  0  0  0  0  0  0  0  0  0  0
    9.4713    4.5921    1.3518 C   0  0  0  0  0  0  0  0  0  0  0  0
    8.1845    4.0825    1.2262 C   0  0  0  0  0  0  0  0  0  0  0  0
    6.6776    2.1693    1.1249 C   0  0  0  0  0  0  0  0  0  0  0  0
    5.5772    1.7191    1.0183 C   0  0  0  0  0  0  0  0  0  0  0  0
    4.2651    1.1501    0.8862 C   0  0  0  0  0  0  0  0  0  0  0  0
    3.2805    2.0683    1.1184 O   0  0  0  0  0  0  0  0  0  0  0  0
    3.9881    0.0000    0.6061 O   0  0  0  0  0  0  0  0  0  0  0  0
    1.9220    1.6340    1.0192 C   0  0  0  0  0  0  0  0  0  0  0  0
    1.0616    2.8420    1.3352 C   0  0  0  0  0  0  0  0  0  0  0  0
  1  2  2  0  0  0  0 
  3  1  1  0  0  0  0 
  2  4  1  0  0  0  0 
  5  3  2  0  0  0  0 
  4  6  2  0  0  0  0 
  4  7  1  0  0  0  0 
  6  5  1  0  0  0  0 
  7  8  3  0  0  0  0 
  8  9  1  0  0  0  0 
  9 10  1  0  0  0  0 
  9 11  2  0  0  0  0 
 10 12  1  0  0  0  0 
 12 13  1  0  0  0  0 
M  END
> <Name>
2-Propynoic acid, 3-phenyl-, ethyl ester (9CI)

> <Source>
NIST3DMolFile

> <Tox>
4.670

> <CAS>
2216-94-6

$$$$

  CDK

  9  9  0  0  0  0  0  0  0  0999 V2000
    0.8627    2.0299    0.0000 C   0  0  0  0  0  0  0  0  0  0  0  0
    1.7254    1.5224    0.0000 C   0  0  0  0  0  0  0  0  0  0  0  0
    0.0000    1.5224    0.0000 C   0  0  0  0  0  0  0  0  0  0  0  0
    1.7254    0.5075    0.0000 C   0  0  0  0  0  0  0  0  0  0  0  0
    2.5881    2.0299    0.0000 C   0  0  0  0  0  0  0  0  0  0  0  0
    0.0000    0.5075    0.0000 C   0  0  0  0  0  0  0  0  0  0  0  0
    0.8119    0.0000    0.0000 C   0  0  0  0  0  0  0  0  0  0  0  0
    3.4508    1.5224    0.0000 N   0  0  0  0  0  0  0  0  0  0  0  0
    2.5881    2.9941    0.0000 S   0  0  0  0  0  0  0  0  0  0  0  0
  1  2  2  0  0  0  0 
  3  1  1  0  0  0  0 
  2  4  1  0  0  0  0 
  2  5  1  0  0  0  0 
  6  3  2  0  0  0  0 
  4  7  2  0  0  0  0 
  5  8  1  0  0  0  0 
  5  9  2  0  0  0  0 
  7  6  1  0  0  0  0 
M  END
> <Name>
Benzenecarbothioamide

> <Source>
NIST2DMolFile

> <Tox>
3.090

> <CAS>
2227-79-4

$$$$

  CDK

 11 11  0  0  0  0  0  0  0  0999 V2000
    2.6567   -3.4525    0.0000 C   0  0  0  0  0  0  0  0  0  0  0  0
    1.9925   -2.3037    0.0000 C   0  0  0  0  0  0  0  0  0  0  0  0
    3.9910   -3.4525    0.0000 C   0  0  0  0  0  0  0  0  0  0  0  0
    0.6642   -2.3037    0.0000 C   0  0  0  0  0  0  0  0  0  0  0  0
    2.6567   -1.1488    0.0000 C   0  0  0  0  0  0  0  0  0  0  0  0
    4.6552   -2.3037    0.0000 C   0  0  0  0  0  0  0  0  0  0  0  0
    0.0000   -3.4525    0.0000 O   0  0  0  0  0  0  0  0  0  0  0  0
    0.0000   -1.1488    0.0000 C   0  0  0  0  0  0  0  0  0  0  0  0
    1.9925   -0.0000    0.0000 Cl  0  0  0  0  0  0  0  0  0  0  0  0
    3.9910   -1.1488    0.0000 C   0  0  0  0  0  0  0  0  0  0  0  0
    5.9835   -2.3037    0.0000 Cl  0  0  0  0  0  0  0  0  0  0  0  0
  1  2  2  0  0  0  0 
  1  3  1  0  0  0  0 
  2  4  1  0  0  0  0 
  2  5  1  0  0  0  0 
  6  3  2  0  0  0  0 
  4  7  2  0  0  0  0 
  4  8  1  0  0  0  0 
  5  9  1  0  0  0  0 
  5 10  2  0  0  0  0 
 10  6  1  0  0  0  0 
  6 11  1  0  0  0  0 
M  END
> <Name>
Acetophenone, 2',4'-dichloro- (8CI)

> <Source>
DSSTox2DMolFile

> <Tox>
3.620

> <CAS>
2234-16-4

$$$$

  CDK

  9  9  0  0  0  0  0  0  0  0999 V2000
    0.0000    2.5929    0.0000 N   0  0  0  0  0  0  0  0  0  0  0  0
    0.8477    2.0444    0.0000 C   0  0  0  0  0  0  0  0  0  0  0  0
    1.6954    1.4959    0.0000 C   0  0  0  0  0  0  0  0  0  0  0  0
    2.5430    1.9945    0.0000 C   0  0  0  0  0  0  0  0  0  0  0  0
    1.6954    0.4986    0.0000 C   0  0  0  0  0  0  0  0  0  0  0  0
    3.3907    1.4959    0.0000 C   0  0  0  0  0  0  0  0  0  0  0  0
    2.5430    0.0000    0.0000 C   0  0  0  0  0  0  0  0  0  0  0  0
    4.2883    1.9945    0.0000 N   0  0  0  0  0  0  0  0  0  0  0  0
    3.3907    0.4488    0.0000 C   0  0  0  0  0  0  0  0  0  0  0  0
  1  2  3  0  0  0  0 
  2  3  1  0  0  0  0 
  3  4  2  0  0  0  0 
  5  3  1  0  0  0  0 
  4  6  1  0  0  0  0 
  7  5  2  0  0  0  0 
  6  8  1  0  0  0  0 
  6  9  2  0  0  0  0 
  9  7  1  0  0  0  0 
M  END
> <Name>
Benzonitrile, 3-amino- (9CI)

> <Source>
NIST2DMolFile

> <Tox>
2.530

> <CAS>
2237-30-1

$$$$

  CDK

 10  9  0  0  0  0  0  0  0  0999 V2000
    0.0000   -0.6638    0.0000 C   0  0  0  0  0  0  0  0  0  0  0  0
    1.1513   -0.0000    0.0000 C   0  0  0  0  0  0  0  0  0  0  0  0
    2.3027   -0.6638    0.0000 C   0  0  0  0  0  0  0  0  0  0  0  0
    3.4540   -0.0000    0.0000 C   0  0  0  0  0  0  0  0  0  0  0  0
    4.6053   -0.6638    0.0000 C   0  0  0  0  0  0  0  0  0  0  0  0
    5.7670   -0.0000    0.0000 C   0  0  0  0  0  0  0  0  0  0  0  0
    6.9184   -0.6638    0.0000 C   0  0  0  0  0  0  0  0  0  0  0  0
    8.0697   -0.0000    0.0000 C   0  0  0  0  0  0  0  0  0  0  0  0
    9.2210   -0.6638    0.0000 C   0  0  0  0  0  0  0  0  0  0  0  0
   10.3724   -1.3277    0.0000 N   0  0  0  0  0  0  0  0  0  0  0  0
  1  2  1  0  0  0  0 
  2  3  1  0  0  0  0 
  3  4  1  0  0  0  0 
  4  5  1  0  0  0  0 
  5  6  1  0  0  0  0 
  6  7  1  0  0  0  0 
  7  8  1  0  0  0  0 
  8  9  1  0  0  0  0 
  9 10  3  0  0  0  0 
M  END
> <Name>
n-Octanenitrile

> <Source>
DSSTox2DMolFile

> <Tox>
3.625

> <CAS>
2243-27-8

$$$$

  CDK

 12 11  0  0  0  0  0  0  0  0999 V2000
    0.0000    0.4498    0.0000 C   0  0  0  0  0  0  0  0  0  0  0  0
    0.8495    0.9495    0.0000 C   0  0  0  0  0  0  0  0  0  0  0  0
    1.7490    0.4498    0.0000 C   0  0  0  0  0  0  0  0  0  0  0  0
    2.5486    0.9995    0.0000 C   0  0  0  0  0  0  0  0  0  0  0  0
    3.3981    0.4997    0.0000 C   0  0  0  0  0  0  0  0  0  0  0  0
    4.2977    0.9995    0.0000 C   0  0  0  0  0  0  0  0  0  0  0  0
    5.1472    0.4997    0.0000 C   0  0  0  0  0  0  0  0  0  0  0  0
    5.9967    0.9995    0.0000 C   0  0  0  0  0  0  0  0  0  0  0  0
    6.8962    0.4997    0.0000 C   0  0  0  0  0  0  0  0  0  0  0  0
    7.7458    0.9995    0.0000 C   0  0  0  0  0  0  0  0  0  0  0  0
    8.5953    0.4997    0.0000 C   0  0  0  0  0  0  0  0  0  0  0  0
    9.4948    0.0000    0.0000 N   0  0  0  0  0  0  0  0  0  0  0  0
  1  2  1  0  0  0  0 
  2  3  1  0  0  0  0 
  3  4  1  0  0  0  0 
  4  5  1  0  0  0  0 
  5  6  1  0  0  0  0 
  6  7  1  0  0  0  0 
  7  8  1  0  0  0  0 
  8  9  1  0  0  0  0 
  9 10  1  0  0  0  0 
 10 11  1  0  0  0  0 
 11 12  3  0  0  0  0 
M  END
> <Name>
Undecanenitrile

> <Source>
NIST2DMolFile

> <Tox>
4.650

> <CAS>
2244-07-7

$$$$

  CDK

 11 11  0  0  0  0  0  0  0  0999 V2000
    5.7578   -1.9999    0.0000 C   0  0  0  0  0  0  0  0  0  0  0  0
    4.6046   -2.6612    0.0000 C   0  0  0  0  0  0  0  0  0  0  0  0
    5.7578   -0.6693    0.0000 C   0  0  0  0  0  0  0  0  0  0  0  0
    6.9109   -2.6612    0.0000 C   0  0  0  0  0  0  0  0  0  0  0  0
    3.4595   -1.9999    0.0000 C   0  0  0  0  0  0  0  0  0  0  0  0
    6.9109   -0.0000    0.0000 C   0  0  0  0  0  0  0  0  0  0  0  0
    8.0641   -1.9999    0.0000 C   0  0  0  0  0  0  0  0  0  0  0  0
    2.3063   -2.6612    0.0000 N   0  0  0  0  0  0  0  0  0  0  0  0
    8.0641   -0.6693    0.0000 C   0  0  0  0  0  0  0  0  0  0  0  0
    1.1532   -1.9999    0.0000 C   0  0  0  0  0  0  0  0  0  0  0  0
    0.0000   -1.3306    0.0000 S   0  0  0  0  0  0  0  0  0  0  0  0
  1  2  1  0  0  0  0 
  1  3  2  0  0  0  0 
  1  4  1  0  0  0  0 
  2  5  1  0  0  0  0 
  3  6  1  0  0  0  0 
  7  4  2  0  0  0  0 
  5  8  1  0  0  0  0 
  6  9  2  0  0  0  0 
  9  7  1  0  0  0  0 
  8 10  2  0  0  0  0 
 10 11  2  0  0  0  0 
M  END
> <Name>
Isothiocyanic acid, phenethyl ester

> <Source>
DSSTox2DMolFile

> <Tox>
5.538

> <CAS>
2257-09-2

$$$$

  CDK

  9  8  0  0  0  0  0  0  0  0999 V2000
   -0.2766   -0.3030    0.2998 C   0  0  0  0  0  0  0  0  0  0  0  0
   -1.3237    0.7523    0.0171 C   0  0  0  0  0  0  0  0  0  0  0  0
   -0.5566   -1.4361    0.6562 O   0  0  0  0  0  0  0  0  0  0  0  0
    1.1008    0.0790    0.2428 N   0  0  0  0  0  0  0  0  0  0  0  0
   -2.9102    0.0150   -0.2202 Cl  0  0  0  0  0  0  0  0  0  0  0  0
    1.5035    1.2517   -0.5851 C   0  0  0  0  0  0  0  0  0  0  0  0
    2.1588   -0.9485    0.4342 C   0  0  0  0  0  0  0  0  0  0  0  0
    1.9587    2.4042    0.2906 C   0  0  0  0  0  0  0  0  0  0  0  0
    2.4158   -1.8254   -0.7766 C   0  0  0  0  0  0  0  0  0  0  0  0
  1  2  1  0  0  0  0 
  1  3  2  0  0  0  0 
  1  4  1  0  0  0  0 
  2  5  1  0  0  0  0 
  4  6  1  0  0  0  0 
  4  7  1  0  0  0  0 
  6  8  1  0  0  0  0 
  7  9  1  0  0  0  0 
M  END
> <Name>
Acetamide, 2-chloro-N,N-diethyl-

> <Source>
DougDB3DMolFile

> <Tox>
3.521

> <CAS>
2315-36-8

$$$$

  CDK

 12 12  0  0  0  0  0  0  0  0999 V2000
    5.6658    0.8780    0.7582 C   0  0  0  0  0  0  0  0  0  0  0  0
    7.0299    0.7314    0.9829 C   0  0  0  0  0  0  0  0  0  0  0  0
    4.9316    1.8094    1.4986 C   0  0  0  0  0  0  0  0  0  0  0  0
    7.6680    1.5105    1.9420 C   0  0  0  0  0  0  0  0  0  0  0  0
    5.5753    2.5908    2.4619 C   0  0  0  0  0  0  0  0  0  0  0  0
    3.4741    1.9342    1.2276 C   0  0  0  0  0  0  0  0  0  0  0  0
    6.9401    2.4385    2.6791 C   0  0  0  0  0  0  0  0  0  0  0  0
    2.8311    2.8552    2.0021 O   0  0  0  0  0  0  0  0  0  0  0  0
    2.8281    1.3104    0.4045 O   0  0  0  0  0  0  0  0  0  0  0  0
    1.4261    3.0376    1.8150 C   0  0  0  0  0  0  0  0  0  0  0  0
    0.9781    4.0967    2.8180 C   0  0  0  0  0  0  0  0  0  0  0  0
    0.8532    3.5515    4.2229 C   0  0  0  0  0  0  0  0  0  0  0  0
  2  1  2  0  0  0  0 
  1  3  1  0  0  0  0 
  4  2  1  0  0  0  0 
  3  5  2  0  0  0  0 
  3  6  1  0  0  0  0 
  7  4  2  0  0  0  0 
  5  7  1  0  0  0  0 
  6  8  1  0  0  0  0 
  6  9  2  0  0  0  0 
  8 10  1  0  0  0  0 
 10 11  1  0  0  0  0 
 11 12  1  0  0  0  0 
M  END
> <Name>
propyl benzoate

> <Source>
NIST3DMolFile

> <Tox>
3.420

> <CAS>
2315-68-6

$$$$

  CDK

 10 10  0  0  0  0  0  0  0  0999 V2000
    2.6026    3.5035    0.0000 O   0  0  0  0  0  0  0  0  0  0  0  0
    1.7518    3.0030    0.0000 C   0  0  0  0  0  0  0  0  0  0  0  0
    1.7518    2.0020    0.0000 C   0  0  0  0  0  0  0  0  0  0  0  0
    0.9009    1.5015    0.0000 C   0  0  0  0  0  0  0  0  0  0  0  0
    2.6026    1.5015    0.0000 C   0  0  0  0  0  0  0  0  0  0  0  0
    0.0000    2.0020    0.0000 O   0  0  0  0  0  0  0  0  0  0  0  0
    0.9009    0.5005    0.0000 C   0  0  0  0  0  0  0  0  0  0  0  0
    2.6026    0.5005    0.0000 C   0  0  0  0  0  0  0  0  0  0  0  0
    1.7518    0.0000    0.0000 C   0  0  0  0  0  0  0  0  0  0  0  0
    3.5035    0.0000    0.0000 Br  0  0  0  0  0  0  0  0  0  0  0  0
  1  2  1  0  0  0  0 
  2  3  1  0  0  0  0 
  4  3  2  0  0  0  0 
  3  5  1  0  0  0  0 
  4  6  1  0  0  0  0 
  7  4  1  0  0  0  0 
  5  8  2  0  0  0  0 
  9  7  2  0  0  0  0 
  8  9  1  0  0  0  0 
  8 10  1  0  0  0  0 
M  END
> <Name>
4-bromo-2-(hydroxymethyl)phenol

> <Source>
NIST2DMolFile

> <Tox>
3.340

> <CAS>
2316-64-5

$$$$

  CDK

 10 10  0  0  0  0  0  0  0  0999 V2000
    0.0000    1.7493    0.0000 O   0  0  0  0  0  0  0  0  0  0  0  0
    0.9996    1.7493    0.0000 C   0  0  0  0  0  0  0  0  0  0  0  0
    1.4994    2.5990    0.0000 C   0  0  0  0  0  0  0  0  0  0  0  0
    1.4994    0.8997    0.0000 C   0  0  0  0  0  0  0  0  0  0  0  0
    0.9996    3.4987    0.0000 C   0  0  0  0  0  0  0  0  0  0  0  0
    2.4991    2.5990    0.0000 C   0  0  0  0  0  0  0  0  0  0  0  0
    0.9996    0.0000    0.0000 C   0  0  0  0  0  0  0  0  0  0  0  0
    2.4991    0.8997    0.0000 C   0  0  0  0  0  0  0  0  0  0  0  0
    2.9989    1.7493    0.0000 C   0  0  0  0  0  0  0  0  0  0  0  0
    3.9985    1.7493    0.0000 Br  0  0  0  0  0  0  0  0  0  0  0  0
  1  2  1  0  0  0  0 
  3  2  2  0  0  0  0 
  2  4  1  0  0  0  0 
  3  5  1  0  0  0  0 
  6  3  1  0  0  0  0 
  4  7  1  0  0  0  0 
  4  8  2  0  0  0  0 
  9  6  2  0  0  0  0 
  8  9  1  0  0  0  0 
  9 10  1  0  0  0  0 
M  END
> <Name>
Phenol, 4-bromo-2,6-dimethyl-

> <Source>
NIST2DMolFile

> <Tox>
4.160

> <CAS>
2374-05-2

$$$$

  CDK

 12 13  0  0  0  0  0  0  0  0999 V2000
    0.5927    1.3892   -0.0001 N   0  0  0  0  0  0  0  0  0  0  0  0
   -0.5638    0.7035    0.0001 C   0  0  0  0  0  0  0  0  0  0  0  0
    1.7387    0.6847    0.0000 C   0  0  0  0  0  0  0  0  0  0  0  0
   -0.5638   -0.7034    0.0000 C   0  0  0  0  0  0  0  0  0  0  0  0
   -1.7809    1.3809    0.0000 C   0  0  0  0  0  0  0  0  0  0  0  0
    1.7387   -0.6847    0.0000 C   0  0  0  0  0  0  0  0  0  0  0  0
    3.0066    1.4676    0.0001 C   0  0  0  0  0  0  0  0  0  0  0  0
    0.5928   -1.3892    0.0002 N   0  0  0  0  0  0  0  0  0  0  0  0
   -1.7808   -1.3810    0.0000 C   0  0  0  0  0  0  0  0  0  0  0  0
   -2.9933    0.6934    0.0001 C   0  0  0  0  0  0  0  0  0  0  0  0
    3.0064   -1.4676   -0.0002 C   0  0  0  0  0  0  0  0  0  0  0  0
   -2.9932   -0.6935   -0.0001 C   0  0  0  0  0  0  0  0  0  0  0  0
  1  2  1  0  0  0  0 
  1  3  2  0  0  0  0 
  2  4  1  0  0  0  0 
  2  5  2  0  0  0  0 
  3  6  1  0  0  0  0 
  3  7  1  0  0  0  0 
  8  4  1  0  0  0  0 
  4  9  2  0  0  0  0 
  5 10  1  0  0  0  0 
  8  6  2  0  0  0  0 
  6 11  1  0  0  0  0 
  9 12  1  0  0  0  0 
 10 12  2  0  0  0  0 
M  END
> <Name>
2,3-dimethylquinoxaline

> <Source>
Chemidplus3DMolFile

> <Tox>
3.250

> <CAS>
2379-55-7

$$$$

  CDK

 15 15  0  0  0  0  0  0  0  0999 V2000
    3.4814    1.4128    0.0000 C   0  0  0  0  0  0  0  0  0  0  0  0
    3.4814    2.3210    0.0000 C   0  0  0  0  0  0  0  0  0  0  0  0
    2.6237    0.8577    0.0000 C   0  0  0  0  0  0  0  0  0  0  0  0
    4.3896    0.8577    0.0000 C   0  0  0  0  0  0  0  0  0  0  0  0
    2.6237    2.8255    0.0000 C   0  0  0  0  0  0  0  0  0  0  0  0
    1.7659    1.4128    0.0000 C   0  0  0  0  0  0  0  0  0  0  0  0
    4.8942    1.7659    0.0000 C   0  0  0  0  0  0  0  0  0  0  0  0
    3.8851    0.0000    0.0000 C   0  0  0  0  0  0  0  0  0  0  0  0
    5.2474    0.4036    0.0000 C   0  0  0  0  0  0  0  0  0  0  0  0
    1.7659    2.3210    0.0000 C   0  0  0  0  0  0  0  0  0  0  0  0
    2.6237    3.8346    0.0000 N   0  0  0  0  0  0  0  0  0  0  0  0
    0.9082    0.8577    0.0000 C   0  0  0  0  0  0  0  0  0  0  0  0
    0.3532    1.7659    0.0000 C   0  0  0  0  0  0  0  0  0  0  0  0
    1.3623    0.0000    0.0000 C   0  0  0  0  0  0  0  0  0  0  0  0
    0.0000    0.4036    0.0000 C   0  0  0  0  0  0  0  0  0  0  0  0
  2  1  2  0  0  0  0 
  1  3  1  0  0  0  0 
  1  4  1  0  0  0  0 
  5  2  1  0  0  0  0 
  3  6  2  0  0  0  0 
  4  7  1  0  0  0  0 
  4  8  1  0  0  0  0 
  4  9  1  0  0  0  0 
 10  5  2  0  0  0  0 
  5 11  1  0  0  0  0 
  6 10  1  0  0  0  0 
  6 12  1  0  0  0  0 
 12 13  1  0  0  0  0 
 12 14  1  0  0  0  0 
 12 15  1  0  0  0  0 
M  END
> <Name>
3,5-Di-tert-butylaniline

> <Source>
NIST2DMolFile

> <Tox>
4.440

> <CAS>
2380-36-1

$$$$

  CDK

 12 12  0  0  0  0  0  0  0  0999 V2000
   -2.0262    1.3827   -0.5988 O   0  0  0  0  0  0  0  0  0  0  0  0
   -1.1567    0.3604   -0.3662 C   0  0  0  0  0  0  0  0  0  0  0  0
   -2.2395    2.3074    0.4661 C   0  0  0  0  0  0  0  0  0  0  0  0
    0.1962    0.5297   -0.6612 C   0  0  0  0  0  0  0  0  0  0  0  0
   -1.6093   -0.8489    0.1617 C   0  0  0  0  0  0  0  0  0  0  0  0
    1.0962   -0.5102   -0.4282 C   0  0  0  0  0  0  0  0  0  0  0  0
   -2.9282   -1.0265    0.4526 O   0  0  0  0  0  0  0  0  0  0  0  0
   -0.7092   -1.8887    0.3947 C   0  0  0  0  0  0  0  0  0  0  0  0
    2.5425   -0.3289   -0.7432 C   0  0  0  0  0  0  0  0  0  0  0  0
    0.6434   -1.7194    0.0997 C   0  0  0  0  0  0  0  0  0  0  0  0
    3.3456    0.2294    0.4357 C   0  0  0  0  0  0  0  0  0  0  0  0
    2.8454    1.5131    0.7870 O   0  0  0  0  0  0  0  0  0  0  0  0
  1  2  1  0  0  0  0 
  1  3  1  0  0  0  0 
  4  2  1  0  0  0  0 
  2  5  2  0  0  0  0 
  6  4  2  0  0  0  0 
  7  5  1  0  0  0  0 
  5  8  1  0  0  0  0 
  6  9  1  0  0  0  0 
  6 10  1  0  0  0  0 
 10  8  2  0  0  0  0 
  9 11  1  0  0  0  0 
 12 11  1  0  0  0  0 
M  END
> <Name>
4-(2-hydroxyethyl)-2-methoxyphenol

> <Source>
Chemidplus3DMolFile

> <Tox>
2.820

> <CAS>
2380-78-1

$$$$

  CDK

 10 10  0  0  0  0  0  0  0  0999 V2000
   -1.9706    1.3994   -0.5093 O   0  0  0  0  0  0  0  0  0  0  0  0
   -1.5049    0.3338   -0.0325 C   0  0  0  0  0  0  0  0  0  0  0  0
   -0.0960    0.0566   -0.0125 C   0  0  0  0  0  0  0  0  0  0  0  0
   -2.5132   -0.6732    0.5357 C   0  0  0  0  0  0  0  0  0  0  0  0
    0.4554   -1.2040   -0.0771 C   0  0  0  0  0  0  0  0  0  0  0  0
    0.9730    0.9821    0.0757 C   0  0  0  0  0  0  0  0  0  0  0  0
    1.8183   -1.0690   -0.0308 N   0  0  0  0  0  0  0  0  0  0  0  0
   -0.1716   -2.5365   -0.1798 C   0  0  0  0  0  0  0  0  0  0  0  0
    2.1453    0.2588    0.0623 C   0  0  0  0  0  0  0  0  0  0  0  0
    0.8644    2.4519    0.1683 C   0  0  0  0  0  0  0  0  0  0  0  0
  1  2  2  0  0  0  0 
  3  2  1  0  0  0  0 
  2  4  1  0  0  0  0 
  3  5  2  0  0  0  0 
  3  6  1  0  0  0  0 
  7  5  1  0  0  0  0 
  5  8  1  0  0  0  0 
  6  9  2  0  0  0  0 
  6 10  1  0  0  0  0 
  7  9  1  0  0  0  0 
M  END
> <Name>
1-(2,4-dimethyl-1H-pyrrol-3-yl)ethanone

> <Source>
Chemidplus3DMolFile

> <Tox>
2.680

> <CAS>
2386-25-6

$$$$

  CDK

  8  7  0  0  0  0  0  0  0  0999 V2000
    4.3022    1.9218    0.9766 O   0  0  0  0  0  0  0  0  0  0  0  0
    3.1334    1.2130    0.9547 C   0  0  0  0  0  0  0  0  0  0  0  0
    5.5372    1.2026    0.9693 C   0  0  0  0  0  0  0  0  0  0  0  0
    1.9273    2.1249    0.9832 C   0  0  0  0  0  0  0  0  0  0  0  0
    3.1816    0.0000    0.9082 O   0  0  0  0  0  0  0  0  0  0  0  0
    6.6244    2.2130    1.1442 C   0  0  0  0  0  0  0  0  0  0  0  0
    0.6029    1.3911    1.0627 C   0  0  0  0  0  0  0  0  0  0  0  0
    7.8398    1.8642    1.5491 C   0  0  0  0  0  0  0  0  0  0  0  0
  1  2  1  0  0  0  0 
  1  3  1  0  0  0  0 
  2  4  1  0  0  0  0 
  2  5  2  0  0  0  0 
  3  6  1  0  0  0  0 
  4  7  1  0  0  0  0 
  6  8  2  0  0  0  0 
M  END
> <Name>
Propionic acid, allyl ester (8CI)

> <Source>
NIST3DMolFile

> <Tox>
2.121

> <CAS>
2408-20-0

$$$$

  CDK

 12 12  0  0  0  0  0  0  0  0999 V2000
    1.8146   -3.8135    0.0000 C   0  0  0  0  0  0  0  0  0  0  0  0
    1.1521   -2.6614    0.0000 C   0  0  0  0  0  0  0  0  0  0  0  0
    2.3042   -1.9989    0.0000 C   0  0  0  0  0  0  0  0  0  0  0  0
    0.0000   -3.3239    0.0000 C   0  0  0  0  0  0  0  0  0  0  0  0
    0.4896   -1.5093    0.0000 C   0  0  0  0  0  0  0  0  0  0  0  0
    2.3042   -0.6682    0.0000 C   0  0  0  0  0  0  0  0  0  0  0  0
    3.4563   -2.6614    0.0000 C   0  0  0  0  0  0  0  0  0  0  0  0
    3.4563   -0.0000    0.0000 C   0  0  0  0  0  0  0  0  0  0  0  0
    1.1521   -0.0000    0.0000 O   0  0  0  0  0  0  0  0  0  0  0  0
    4.6085   -1.9989    0.0000 C   0  0  0  0  0  0  0  0  0  0  0  0
    4.6085   -0.6682    0.0000 C   0  0  0  0  0  0  0  0  0  0  0  0
    5.7606   -2.6614    0.0000 C   0  0  0  0  0  0  0  0  0  0  0  0
  1  2  1  0  0  0  0 
  2  3  1  0  0  0  0 
  2  4  1  0  0  0  0 
  2  5  1  0  0  0  0 
  3  6  2  0  0  0  0 
  3  7  1  0  0  0  0 
  6  8  1  0  0  0  0 
  6  9  1  0  0  0  0 
 10  7  2  0  0  0  0 
  8 11  2  0  0  0  0 
 11 10  1  0  0  0  0 
 10 12  1  0  0  0  0 
M  END
> <Name>
Phenol, 2-(1,1-dimethylethyl)-4-methyl-

> <Source>
DSSTox2DMolFile

> <Tox>
4.300

> <CAS>
2409-55-4

$$$$

  CDK

 10 10  0  0  0  0  0  0  0  0999 V2000
    1.3296   -0.0000    0.0000 O   0  0  0  0  0  0  0  0  0  0  0  0
    1.9943   -1.1541    0.0000 C   0  0  0  0  0  0  0  0  0  0  0  0
    3.3239   -1.1541    0.0000 C   0  0  0  0  0  0  0  0  0  0  0  0
    1.3296   -2.3081    0.0000 C   0  0  0  0  0  0  0  0  0  0  0  0
    3.9887   -0.0000    0.0000 C   0  0  0  0  0  0  0  0  0  0  0  0
    3.9887   -2.3081    0.0000 C   0  0  0  0  0  0  0  0  0  0  0  0
    1.9943   -3.4568    0.0000 C   0  0  0  0  0  0  0  0  0  0  0  0
    0.0000   -2.3081    0.0000 C   0  0  0  0  0  0  0  0  0  0  0  0
    5.3182   -2.3081    0.0000 C   0  0  0  0  0  0  0  0  0  0  0  0
    3.3239   -3.4568    0.0000 C   0  0  0  0  0  0  0  0  0  0  0  0
  1  2  1  0  0  0  0 
  2  3  2  0  0  0  0 
  2  4  1  0  0  0  0 
  3  5  1  0  0  0  0 
  3  6  1  0  0  0  0 
  7  4  2  0  0  0  0 
  4  8  1  0  0  0  0 
  6  9  1  0  0  0  0 
  6 10  2  0  0  0  0 
 10  7  1  0  0  0  0 
M  END
> <Name>
Phenol, 2,3,6-trimethyl-

> <Source>
DSSTox2DMolFile

> <Tox>
3.280

> <CAS>
2416-94-6

$$$$

  CDK

  5  4  0  0  0  0  0  0  0  0999 V2000
   -2.8412    0.0694    0.0299 Br  0  0  0  0  0  0  0  0  0  0  0  0
   -0.9999   -0.5720   -0.0290 C   0  0  0  0  0  0  0  0  0  0  0  0
   -0.0201    0.5887   -0.0240 C   0  0  0  0  0  0  0  0  0  0  0  0
    1.3784    0.1348    0.0017 C   0  0  0  0  0  0  0  0  0  0  0  0
    2.4827   -0.2210    0.0214 N   0  0  0  0  0  0  0  0  0  0  0  0
  1  2  1  0  0  0  0 
  3  2  1  0  0  0  0 
  3  4  1  0  0  0  0 
  5  4  3  0  0  0  0 
M  END
> <Name>
3-bromopropanenitrile

> <Source>
Chemidplus3DMolFile

> <Tox>
2.500

> <CAS>
2417-90-5

$$$$

  CDK

 13 13  0  0  0  0  0  0  0  0999 V2000
    1.7606    0.5030    0.0000 C   0  0  0  0  0  0  0  0  0  0  0  0
    1.7606    1.4588    0.0000 C   0  0  0  0  0  0  0  0  0  0  0  0
    0.9054    0.0000    0.0000 C   0  0  0  0  0  0  0  0  0  0  0  0
    0.9054    1.9618    0.0000 C   0  0  0  0  0  0  0  0  0  0  0  0
    2.6660    1.9618    0.0000 C   0  0  0  0  0  0  0  0  0  0  0  0
    0.0000    0.5030    0.0000 C   0  0  0  0  0  0  0  0  0  0  0  0
    0.0000    1.4588    0.0000 C   0  0  0  0  0  0  0  0  0  0  0  0
    3.5211    1.4588    0.0000 C   0  0  0  0  0  0  0  0  0  0  0  0
    4.3260    1.9618    0.0000 C   0  0  0  0  0  0  0  0  0  0  0  0
    5.2314    1.4588    0.0000 C   0  0  0  0  0  0  0  0  0  0  0  0
    6.0865    1.9618    0.0000 C   0  0  0  0  0  0  0  0  0  0  0  0
    6.9417    1.4588    0.0000 C   0  0  0  0  0  0  0  0  0  0  0  0
    7.8471    1.9618    0.0000 O   0  0  0  0  0  0  0  0  0  0  0  0
  2  1  2  0  0  0  0 
  1  3  1  0  0  0  0 
  4  2  1  0  0  0  0 
  2  5  1  0  0  0  0 
  3  6  2  0  0  0  0 
  7  4  2  0  0  0  0 
  5  8  1  0  0  0  0 
  6  7  1  0  0  0  0 
  9  8  1  0  0  0  0 
 10  9  1  0  0  0  0 
 11 10  1  0  0  0  0 
 11 12  1  0  0  0  0 
 12 13  1  0  0  0  0 
M  END
> <Name>
Benzenehexanol

> <Source>
NIST2DMolFile

> <Tox>
3.870

> <CAS>
2430-16-2

$$$$

  CDK

 19 21  0  0  0  0  0  0  0  0999 V2000
    0.0004    1.3050    0.0004 O   0  0  0  0  0  0  0  0  0  0  0  0
    0.0008   -0.0617    0.0004 C   0  0  0  0  0  0  0  0  0  0  0  0
   -1.2093   -0.7582    0.0000 C   0  0  0  0  0  0  0  0  0  0  0  0
    1.2088   -0.7589    0.0003 C   0  0  0  0  0  0  0  0  0  0  0  0
   -2.4749   -0.0569    0.0000 C   0  0  0  0  0  0  0  0  0  0  0  0
   -1.2068   -2.1543   -0.0006 C   0  0  0  0  0  0  0  0  0  0  0  0
    2.4763   -0.0560    0.0001 C   0  0  0  0  0  0  0  0  0  0  0  0
    1.2091   -2.1538   -0.0004 C   0  0  0  0  0  0  0  0  0  0  0  0
   -3.0853    0.2806    1.2080 C   0  0  0  0  0  0  0  0  0  0  0  0
   -3.0847    0.2816   -1.2079 C   0  0  0  0  0  0  0  0  0  0  0  0
    0.0012   -2.8514   -0.0008 C   0  0  0  0  0  0  0  0  0  0  0  0
    3.0837    0.2817   -1.2079 C   0  0  0  0  0  0  0  0  0  0  0  0
    3.0843    0.2806    1.2080 C   0  0  0  0  0  0  0  0  0  0  0  0
   -4.3054    0.9567    1.2080 C   0  0  0  0  0  0  0  0  0  0  0  0
   -4.3046    0.9578   -1.2079 C   0  0  0  0  0  0  0  0  0  0  0  0
    4.3035    0.9584   -1.2079 C   0  0  0  0  0  0  0  0  0  0  0  0
    4.3041    0.9574    1.2081 C   0  0  0  0  0  0  0  0  0  0  0  0
   -4.9150    1.2953    0.0001 C   0  0  0  0  0  0  0  0  0  0  0  0
    4.9136    1.2962    0.0000 C   0  0  0  0  0  0  0  0  0  0  0  0
  1  2  1  0  0  0  0 
  3  2  2  0  0  0  0 
  4  2  1  0  0  0  0 
  3  5  1  0  0  0  0 
  3  6  1  0  0  0  0 
  4  7  1  0  0  0  0 
  4  8  2  0  0  0  0 
  5  9  2  0  0  0  0 
  5 10  1  0  0  0  0 
  6 11  2  0  0  0  0 
  7 12  2  0  0  0  0 
  7 13  1  0  0  0  0 
  8 11  1  0  0  0  0 
  9 14  1  0  0  0  0 
 10 15  2  0  0  0  0 
 12 16  1  0  0  0  0 
 13 17  2  0  0  0  0 
 14 18  2  0  0  0  0 
 15 18  1  0  0  0  0 
 16 19  2  0  0  0  0 
 17 19  1  0  0  0  0 
M  END
> <Name>
2,6-diphenylphenol

> <Source>
Chemidplus3DMolFile

> <Tox>
5.113

> <CAS>
2432-11-3

$$$$

  CDK

 13 12  0  0  0  0  0  0  0  0999 V2000
    0.0000   -1.3277    0.0000 C   0  0  0  0  0  0  0  0  0  0  0  0
    1.1479   -0.6638    0.0000 C   0  0  0  0  0  0  0  0  0  0  0  0
    2.3096   -1.3277    0.0000 C   0  0  0  0  0  0  0  0  0  0  0  0
    3.4575   -0.6638    0.0000 C   0  0  0  0  0  0  0  0  0  0  0  0
    4.6053   -1.3277    0.0000 C   0  0  0  0  0  0  0  0  0  0  0  0
    5.7670   -0.6638    0.0000 C   0  0  0  0  0  0  0  0  0  0  0  0
    6.9149   -1.3277    0.0000 C   0  0  0  0  0  0  0  0  0  0  0  0
    8.0628   -0.6638    0.0000 C   0  0  0  0  0  0  0  0  0  0  0  0
    9.2245   -1.3277    0.0000 C   0  0  0  0  0  0  0  0  0  0  0  0
   10.3724   -0.6638    0.0000 C   0  0  0  0  0  0  0  0  0  0  0  0
   11.5202   -1.3277    0.0000 C   0  0  0  0  0  0  0  0  0  0  0  0
   12.6819   -0.6638    0.0000 C   0  0  0  0  0  0  0  0  0  0  0  0
   13.8298   -0.0000    0.0000 N   0  0  0  0  0  0  0  0  0  0  0  0
  1  2  1  0  0  0  0 
  2  3  1  0  0  0  0 
  3  4  1  0  0  0  0 
  4  5  1  0  0  0  0 
  5  6  1  0  0  0  0 
  6  7  1  0  0  0  0 
  7  8  1  0  0  0  0 
  8  9  1  0  0  0  0 
  9 10  1  0  0  0  0 
 10 11  1  0  0  0  0 
 11 12  1  0  0  0  0 
 12 13  3  0  0  0  0 
M  END
> <Name>
Lauronitrile (8CI)

> <Source>
DSSTox2DMolFile

> <Tox>
4.903

> <CAS>
2437-25-4

$$$$

  CDK

 11 11  0  0  0  0  0  0  0  0999 V2000
    3.4801    1.9886    0.0000 O   0  0  0  0  0  0  0  0  0  0  0  0
    2.5852    1.4915    0.0000 C   0  0  0  0  0  0  0  0  0  0  0  0
    1.7401    1.9886    0.0000 C   0  0  0  0  0  0  0  0  0  0  0  0
    2.5852    0.4972    0.0000 C   0  0  0  0  0  0  0  0  0  0  0  0
    1.7401    2.9830    0.0000 Br  0  0  0  0  0  0  0  0  0  0  0  0
    0.8949    1.4915    0.0000 C   0  0  0  0  0  0  0  0  0  0  0  0
    3.4801    0.0000    0.0000 Br  0  0  0  0  0  0  0  0  0  0  0  0
    1.7401    0.0000    0.0000 C   0  0  0  0  0  0  0  0  0  0  0  0
    0.0000    1.9886    0.0000 O   0  0  0  0  0  0  0  0  0  0  0  0
    0.8949    0.4972    0.0000 C   0  0  0  0  0  0  0  0  0  0  0  0
    0.0000    0.0000    0.0000 Br  0  0  0  0  0  0  0  0  0  0  0  0
  1  2  1  0  0  0  0 
  3  2  2  0  0  0  0 
  2  4  1  0  0  0  0 
  3  5  1  0  0  0  0 
  6  3  1  0  0  0  0 
  4  7  1  0  0  0  0 
  4  8  2  0  0  0  0 
  6  9  1  0  0  0  0 
 10  6  2  0  0  0  0 
  8 10  1  0  0  0  0 
 10 11  1  0  0  0  0 
M  END
> <Name>
1,3-Benzenediol, 2,4,6-tribromo- (9CI)

> <Source>
NIST2DMolFile

> <Tox>
4.060

> <CAS>
2437-49-2

$$$$

  CDK

 11 11  0  0  0  0  0  0  0  0999 V2000
    2.6567   -1.1488    0.0000 C   0  0  0  0  0  0  0  0  0  0  0  0
    1.9925   -0.0000    0.0000 Cl  0  0  0  0  0  0  0  0  0  0  0  0
    3.9910   -1.1488    0.0000 C   0  0  0  0  0  0  0  0  0  0  0  0
    1.9925   -2.3037    0.0000 C   0  0  0  0  0  0  0  0  0  0  0  0
    4.6552   -2.3037    0.0000 C   0  0  0  0  0  0  0  0  0  0  0  0
    2.6567   -3.4525    0.0000 C   0  0  0  0  0  0  0  0  0  0  0  0
    0.6642   -2.3037    0.0000 C   0  0  0  0  0  0  0  0  0  0  0  0
    5.9835   -2.3037    0.0000 Cl  0  0  0  0  0  0  0  0  0  0  0  0
    3.9910   -3.4525    0.0000 C   0  0  0  0  0  0  0  0  0  0  0  0
    0.0000   -3.4525    0.0000 O   0  0  0  0  0  0  0  0  0  0  0  0
    0.0000   -1.1488    0.0000 N   0  0  0  0  0  0  0  0  0  0  0  0
  1  2  1  0  0  0  0 
  1  3  2  0  0  0  0 
  1  4  1  0  0  0  0 
  3  5  1  0  0  0  0 
  6  4  2  0  0  0  0 
  4  7  1  0  0  0  0 
  5  8  1  0  0  0  0 
  5  9  2  0  0  0  0 
  9  6  1  0  0  0  0 
  7 10  2  0  0  0  0 
  7 11  1  0  0  0  0 
M  END
> <Name>
Benzamide, 2,4-dichloro-

> <Source>
DSSTox2DMolFile

> <Tox>
2.640

> <CAS>
2447-79-2

$$$$

  CDK

 16 17  0  0  0  0  0  0  0  0999 V2000
    2.6124    0.5024    0.0000 C   0  0  0  0  0  0  0  0  0  0  0  0
    2.6124    1.4569    0.0000 C   0  0  0  0  0  0  0  0  0  0  0  0
    1.7584    0.0000    0.0000 C   0  0  0  0  0  0  0  0  0  0  0  0
    1.7584    1.9593    0.0000 C   0  0  0  0  0  0  0  0  0  0  0  0
    3.4665    2.0096    0.0000 C   0  0  0  0  0  0  0  0  0  0  0  0
    0.9043    0.5024    0.0000 C   0  0  0  0  0  0  0  0  0  0  0  0
    0.9043    1.4569    0.0000 C   0  0  0  0  0  0  0  0  0  0  0  0
    3.4665    3.0143    0.0000 O   0  0  0  0  0  0  0  0  0  0  0  0
    4.3708    1.4569    0.0000 C   0  0  0  0  0  0  0  0  0  0  0  0
    0.0000    0.0000    0.0000 O   0  0  0  0  0  0  0  0  0  0  0  0
    5.1746    1.9593    0.0000 C   0  0  0  0  0  0  0  0  0  0  0  0
    5.1746    2.9641    0.0000 C   0  0  0  0  0  0  0  0  0  0  0  0
    6.0287    1.4569    0.0000 C   0  0  0  0  0  0  0  0  0  0  0  0
    6.0789    3.4665    0.0000 C   0  0  0  0  0  0  0  0  0  0  0  0
    6.9330    1.9091    0.0000 C   0  0  0  0  0  0  0  0  0  0  0  0
    6.9330    2.9139    0.0000 C   0  0  0  0  0  0  0  0  0  0  0  0
  2  1  2  0  0  0  0 
  1  3  1  0  0  0  0 
  4  2  1  0  0  0  0 
  2  5  1  0  0  0  0 
  3  6  2  0  0  0  0 
  7  4  2  0  0  0  0 
  5  8  2  0  0  0  0 
  5  9  1  0  0  0  0 
  6  7  1  0  0  0  0 
  6 10  1  0  0  0  0 
 11  9  1  0  0  0  0 
 11 12  2  0  0  0  0 
 13 11  1  0  0  0  0 
 12 14  1  0  0  0  0 
 15 13  2  0  0  0  0 
 14 16  2  0  0  0  0 
 16 15  1  0  0  0  0 
M  END
> <Name>
Benzyl 4-hydroxyphenyl ketone

> <Source>
NIST2DMolFile

> <Tox>
4.070

> <CAS>
2491-32-9

$$$$

  CDK

 12 12  0  0  0  0  0  0  0  0999 V2000
    5.9649    0.4971    0.0000 C   0  0  0  0  0  0  0  0  0  0  0  0
    5.9649    1.4912    0.0000 C   0  0  0  0  0  0  0  0  0  0  0  0
    5.1199    0.0000    0.0000 C   0  0  0  0  0  0  0  0  0  0  0  0
    5.1199    2.0380    0.0000 C   0  0  0  0  0  0  0  0  0  0  0  0
    4.2252    0.4971    0.0000 C   0  0  0  0  0  0  0  0  0  0  0  0
    4.2252    1.5409    0.0000 C   0  0  0  0  0  0  0  0  0  0  0  0
    3.3801    2.0380    0.0000 C   0  0  0  0  0  0  0  0  0  0  0  0
    2.5351    1.4912    0.0000 O   0  0  0  0  0  0  0  0  0  0  0  0
    1.6901    2.0380    0.0000 C   0  0  0  0  0  0  0  0  0  0  0  0
    0.8450    1.4912    0.0000 C   0  0  0  0  0  0  0  0  0  0  0  0
    1.6901    3.0322    0.0000 O   0  0  0  0  0  0  0  0  0  0  0  0
    0.0000    1.8889    0.0000 C   0  0  0  0  0  0  0  0  0  0  0  0
  2  1  2  0  0  0  0 
  1  3  1  0  0  0  0 
  4  2  1  0  0  0  0 
  3  5  2  0  0  0  0 
  6  4  2  0  0  0  0 
  5  6  1  0  0  0  0 
  6  7  1  0  0  0  0 
  8  7  1  0  0  0  0 
  9  8  1  0  0  0  0 
 10  9  1  0  0  0  0 
  9 11  2  0  0  0  0 
 10 12  2  0  0  0  0 
M  END
> <Name>
2-Propenoic acid, phenylmethyl ester

> <Source>
NIST2DMolFile

> <Tox>
4.350

> <CAS>
2495-35-4

$$$$

  CDK

 13 13  0  0  0  0  0  0  0  0999 V2000
    1.9937   -3.4530    0.0000 C   0  0  0  0  0  0  0  0  0  0  0  0
    1.3318   -2.3047    0.0000 C   0  0  0  0  0  0  0  0  0  0  0  0
    0.0000   -2.3047    0.0000 C   0  0  0  0  0  0  0  0  0  0  0  0
    1.9937   -1.1483    0.0000 C   0  0  0  0  0  0  0  0  0  0  0  0
    1.3318   -0.0000    0.0000 O   0  0  0  0  0  0  0  0  0  0  0  0
    3.3254   -1.1483    0.0000 O   0  0  0  0  0  0  0  0  0  0  0  0
    3.9873   -2.3047    0.0000 C   0  0  0  0  0  0  0  0  0  0  0  0
    5.3191   -2.3047    0.0000 C   0  0  0  0  0  0  0  0  0  0  0  0
    5.9810   -1.1483    0.0000 C   0  0  0  0  0  0  0  0  0  0  0  0
    5.9810   -3.4530    0.0000 C   0  0  0  0  0  0  0  0  0  0  0  0
    7.3127   -1.1483    0.0000 C   0  0  0  0  0  0  0  0  0  0  0  0
    7.3127   -3.4530    0.0000 C   0  0  0  0  0  0  0  0  0  0  0  0
    7.9746   -2.3047    0.0000 C   0  0  0  0  0  0  0  0  0  0  0  0
  1  2  2  0  0  0  0 
  2  3  1  0  0  0  0 
  2  4  1  0  0  0  0 
  4  5  2  0  0  0  0 
  4  6  1  0  0  0  0 
  6  7  1  0  0  0  0 
  7  8  1  0  0  0  0 
  8  9  2  0  0  0  0 
  8 10  1  0  0  0  0 
  9 11  1  0  0  0  0 
 12 10  2  0  0  0  0 
 11 13  2  0  0  0  0 
 13 12  1  0  0  0  0 
M  END
> <Name>
2-Propenoic acid, 2-methyl-, phenylmethyl ester

> <Source>
DSSTox2DMolFile

> <Tox>
3.650

> <CAS>
2495-37-6

$$$$

  CDK

  7  6  0  0  0  0  0  0  0  0999 V2000
    0.0000    0.0000    0.0000 O   0  0  0  0  0  0  0  0  0  0  0  0
    0.4200   -1.0000   -0.5200 C   0  0  0  0  0  0  0  0  0  0  0  0
    1.8600   -1.1400   -0.7800 C   0  0  0  0  0  0  0  0  0  0  0  0
   -0.5000   -2.1400   -0.9000 C   0  0  0  0  0  0  0  0  0  0  0  0
    2.7200   -0.2400   -0.3400 C   0  0  0  0  0  0  0  0  0  0  0  0
    0.2600   -3.3800   -1.3400 C   0  0  0  0  0  0  0  0  0  0  0  0
    4.2000   -0.4200   -0.6400 C   0  0  0  0  0  0  0  0  0  0  0  0
  1  2  2  0  0  0  0 
  2  3  1  0  0  0  0 
  2  4  1  0  0  0  0 
  3  5  2  0  0  0  0 
  4  6  1  0  0  0  0 
  5  7  1  0  0  0  0 
M  END
> <Name>
(E)-hex-4-en-3-one

> <Source>
NIH3DMolFile

> <Tox>
3.920

> <CAS>
2497-21-4

$$$$

  CDK

 12 11  0  0  0  0  0  0  0  0999 V2000
   -3.4210    0.1830    0.0012 C   0  0  0  0  0  0  0  0  0  0  0  0
   -4.5051   -0.8264    0.0037 C   0  0  0  0  0  0  0  0  0  0  0  0
   -3.5208    1.3963   -0.0030 O   0  0  0  0  0  0  0  0  0  0  0  0
   -2.1814   -0.3888    0.0043 O   0  0  0  0  0  0  0  0  0  0  0  0
   -5.7872   -0.4740   -0.0092 C   0  0  0  0  0  0  0  0  0  0  0  0
   -1.0392    0.4686    0.0039 C   0  0  0  0  0  0  0  0  0  0  0  0
    0.1830   -0.4454    0.0024 C   0  0  0  0  0  0  0  0  0  0  0  0
    1.4567    0.3844    0.0039 C   0  0  0  0  0  0  0  0  0  0  0  0
    2.6907   -0.5034   -0.0011 C   0  0  0  0  0  0  0  0  0  0  0  0
    3.9657    0.3242    0.0021 C   0  0  0  0  0  0  0  0  0  0  0  0
    5.2013   -0.5616   -0.0065 C   0  0  0  0  0  0  0  0  0  0  0  0
    6.4709    0.2595   -0.0017 C   0  0  0  0  0  0  0  0  0  0  0  0
  1  2  1  0  0  0  0 
  1  3  2  0  0  0  0 
  1  4  1  0  0  0  0 
  2  5  2  0  0  0  0 
  4  6  1  0  0  0  0 
  6  7  1  0  0  0  0 
  7  8  1  0  0  0  0 
  8  9  1  0  0  0  0 
  9 10  1  0  0  0  0 
 10 11  1  0  0  0  0 
 11 12  1  0  0  0  0 
M  END
> <Name>
2-Propenoic acid, heptyl ester

> <Source>
DougDB3DMolFile

> <Tox>
4.090

> <CAS>
2499-58-3

$$$$

  CDK

 11 10  0  0  0  0  0  0  0  0999 V2000
    0.0000   -1.3279    0.0000 C   0  0  0  0  0  0  0  0  0  0  0  0
    1.1515   -1.9918    0.0000 C   0  0  0  0  0  0  0  0  0  0  0  0
    2.3031   -1.3279    0.0000 C   0  0  0  0  0  0  0  0  0  0  0  0
    2.3031   -0.0000    0.0000 O   0  0  0  0  0  0  0  0  0  0  0  0
    3.4546   -1.9918    0.0000 O   0  0  0  0  0  0  0  0  0  0  0  0
    4.6061   -1.3279    0.0000 C   0  0  0  0  0  0  0  0  0  0  0  0
    5.7681   -1.9918    0.0000 C   0  0  0  0  0  0  0  0  0  0  0  0
    6.9196   -1.3279    0.0000 C   0  0  0  0  0  0  0  0  0  0  0  0
    8.0711   -1.9918    0.0000 C   0  0  0  0  0  0  0  0  0  0  0  0
    9.2227   -1.3279    0.0000 C   0  0  0  0  0  0  0  0  0  0  0  0
   10.3742   -1.9918    0.0000 C   0  0  0  0  0  0  0  0  0  0  0  0
  1  2  2  0  0  0  0 
  2  3  1  0  0  0  0 
  3  4  2  0  0  0  0 
  3  5  1  0  0  0  0 
  5  6  1  0  0  0  0 
  6  7  1  0  0  0  0 
  7  8  1  0  0  0  0 
  8  9  1  0  0  0  0 
  9 10  1  0  0  0  0 
 10 11  1  0  0  0  0 
M  END
> <Name>
2-Propenoic acid, hexyl ester

> <Source>
DSSTox2DMolFile

> <Tox>
3.740

> <CAS>
2499-95-8

$$$$

  CDK

  7  6  0  0  0  0  0  0  0  0999 V2000
    0.0000    0.0000    0.0000 N   0  0  0  0  0  0  0  0  0  0  0  0
    0.9060    0.5033    0.0000 C   0  0  0  0  0  0  0  0  0  0  0  0
    1.7616    0.0000    0.0000 C   0  0  0  0  0  0  0  0  0  0  0  0
    2.6173    0.5033    0.0000 C   0  0  0  0  0  0  0  0  0  0  0  0
    3.4730    0.0000    0.0000 C   0  0  0  0  0  0  0  0  0  0  0  0
    4.3286    0.5033    0.0000 C   0  0  0  0  0  0  0  0  0  0  0  0
    5.1843    0.0000    0.0000 O   0  0  0  0  0  0  0  0  0  0  0  0
  1  2  1  0  0  0  0 
  2  3  1  0  0  0  0 
  3  4  1  0  0  0  0 
  4  5  1  0  0  0  0 
  5  6  1  0  0  0  0 
  6  7  1  0  0  0  0 
M  END
> <Name>
5-Aminopentan-1-ol

> <Source>
NIST2DMolFile

> <Tox>
1.235

> <CAS>
2508-29-4

$$$$

  CDK

 11 11  0  0  0  0  0  0  0  0999 V2000
    1.4955    0.8474    0.0000 O   0  0  0  0  0  0  0  0  0  0  0  0
    1.9940    1.7447    0.0000 C   0  0  0  0  0  0  0  0  0  0  0  0
    0.4985    0.8474    0.0000 C   0  0  0  0  0  0  0  0  0  0  0  0
    1.4955    2.5922    0.0000 O   0  0  0  0  0  0  0  0  0  0  0  0
    2.9909    1.7447    0.0000 C   0  0  0  0  0  0  0  0  0  0  0  0
    0.0000    0.0000    0.0000 C   0  0  0  0  0  0  0  0  0  0  0  0
    3.4894    2.5922    0.0000 C   0  0  0  0  0  0  0  0  0  0  0  0
    3.4894    0.8474    0.0000 N   0  0  0  0  0  0  0  0  0  0  0  0
    4.4864    2.5922    0.0000 C   0  0  0  0  0  0  0  0  0  0  0  0
    4.4864    0.8474    0.0000 C   0  0  0  0  0  0  0  0  0  0  0  0
    4.9849    1.7447    0.0000 C   0  0  0  0  0  0  0  0  0  0  0  0
  1  2  1  0  0  0  0 
  1  3  1  0  0  0  0 
  2  4  2  0  0  0  0 
  2  5  1  0  0  0  0 
  3  6  1  0  0  0  0 
  7  5  2  0  0  0  0 
  5  8  1  0  0  0  0 
  9  7  1  0  0  0  0 
  8 10  2  0  0  0  0 
 11  9  2  0  0  0  0 
 10 11  1  0  0  0  0 
M  END
> <Name>
ethyl pyridine-2-carboxylate

> <Source>
NIST2DMolFile

> <Tox>
2.080

> <CAS>
2524-52-9

$$$$

  CDK

 13 13  0  0  0  0  0  0  0  0999 V2000
   -1.0349    0.9159   -0.0181 C   0  0  0  0  0  0  0  0  0  0  0  0
   -0.6916   -0.4503   -0.0003 C   0  0  0  0  0  0  0  0  0  0  0  0
   -0.0626    1.8744   -0.0199 N   0  0  0  0  0  0  0  0  0  0  0  0
   -2.5986    1.4789   -0.0513 Cl  0  0  0  0  0  0  0  0  0  0  0  0
    0.6644   -0.8072    0.0099 C   0  0  0  0  0  0  0  0  0  0  0  0
   -1.7311   -1.5383    0.0088 N   0  0  0  0  0  0  0  0  0  0  0  0
    1.2364    1.5429   -0.0039 C   0  0  0  0  0  0  0  0  0  0  0  0
    1.6383    0.1916    0.0108 C   0  0  0  0  0  0  0  0  0  0  0  0
   -2.8497   -1.2807    0.3964 O   0  0  0  0  0  0  0  0  0  0  0  0
   -1.4145   -2.6451   -0.3700 O   0  0  0  0  0  0  0  0  0  0  0  0
    3.0993   -0.1581    0.0283 N   0  0  0  0  0  0  0  0  0  0  0  0
    3.4227   -1.3211    0.1382 O   0  0  0  0  0  0  0  0  0  0  0  0
    3.9131    0.7360   -0.0654 O   0  0  0  0  0  0  0  0  0  0  0  0
  1  2  1  0  0  0  0 
  1  3  2  0  0  0  0 
  1  4  1  0  0  0  0 
  2  5  2  0  0  0  0 
  2  6  1  0  0  0  0 
  7  3  1  0  0  0  0 
  5  8  1  0  0  0  0 
  6  9  2  0  0  0  0 
  6 10  1  0  0  0  0 
  8  7  2  0  0  0  0 
  8 11  1  0  0  0  0 
 11 12  2  0  0  0  0 
 11 13  1  0  0  0  0 
M  CHG  1   6   1
M  CHG  1  10  -1
M  CHG  1  11   1
M  CHG  1  13  -1
M  END
> <Name>
Pyridine, 2-chloro-3,5-dinitro-

> <Source>
DougDB3DMolFile

> <Tox>
5.640

> <CAS>
2578-45-2

$$$$

  CDK

 11 11  0  0  0  0  0  0  0  0999 V2000
    2.2099   -0.1619    0.0244 C   0  0  0  0  0  0  0  0  0  0  0  0
    1.4868    1.0313   -0.0967 C   0  0  0  0  0  0  0  0  0  0  0  0
    1.5478   -1.3947    0.1325 C   0  0  0  0  0  0  0  0  0  0  0  0
    3.5659   -0.0440    0.0258 O   0  0  0  0  0  0  0  0  0  0  0  0
    0.0928    1.0069   -0.0995 C   0  0  0  0  0  0  0  0  0  0  0  0
    0.1643   -1.4158    0.1227 C   0  0  0  0  0  0  0  0  0  0  0  0
   -0.5719   -0.2277    0.0176 C   0  0  0  0  0  0  0  0  0  0  0  0
   -0.6304    2.2994   -0.2375 C   0  0  0  0  0  0  0  0  0  0  0  0
   -2.0640   -0.3373    0.0312 N   0  0  0  0  0  0  0  0  0  0  0  0
   -2.5929   -1.2053   -0.6353 O   0  0  0  0  0  0  0  0  0  0  0  0
   -2.7238    0.4192    0.7151 O   0  0  0  0  0  0  0  0  0  0  0  0
  1  2  1  0  0  0  0 
  1  3  2  0  0  0  0 
  1  4  1  0  0  0  0 
  2  5  2  0  0  0  0 
  6  3  1  0  0  0  0 
  5  7  1  0  0  0  0 
  5  8  1  0  0  0  0 
  7  6  2  0  0  0  0 
  7  9  1  0  0  0  0 
  9 10  2  0  0  0  0 
  9 11  1  0  0  0  0 
M  CHG  1   9   1
M  CHG  1  11  -1
M  END
> <Name>
Phenol, 3-methyl-4-nitro-

> <Source>
DougDB3DMolFile

> <Tox>
4.730

> <CAS>
2581-34-2

$$$$

  CDK

  7  6  0  0  0  0  0  0  0  0999 V2000
    0.0000    0.9621    0.0000 Br  0  0  0  0  0  0  0  0  0  0  0  0
    0.8608    1.4684    0.0000 C   0  0  0  0  0  0  0  0  0  0  0  0
    1.7722    0.9621    0.0000 C   0  0  0  0  0  0  0  0  0  0  0  0
    2.5824    1.4684    0.0000 C   0  0  0  0  0  0  0  0  0  0  0  0
    3.4431    0.9621    0.0000 C   0  0  0  0  0  0  0  0  0  0  0  0
    4.3546    1.4684    0.0000 O   0  0  0  0  0  0  0  0  0  0  0  0
    3.4431    0.0000    0.0000 O   0  0  0  0  0  0  0  0  0  0  0  0
  1  2  1  0  0  0  0 
  2  3  1  0  0  0  0 
  3  4  1  0  0  0  0 
  4  5  1  0  0  0  0 
  5  6  1  0  0  0  0 
  5  7  2  0  0  0  0 
M  END
> <Name>
Butanoic acid, 4-bromo-

> <Source>
NIST2DMolFile

> <Tox>
2.229

> <CAS>
2623-87-2

$$$$

  CDK

 12 12  0  0  0  0  0  0  0  0999 V2000
    8.0579   -0.6815    0.0000 C   0  0  0  0  0  0  0  0  0  0  0  0
    6.9068   -1.3537    0.0000 N   0  0  0  0  0  0  0  0  0  0  0  0
    9.2090    0.0000    0.0000 S   0  0  0  0  0  0  0  0  0  0  0  0
    5.7464   -0.6907    0.0000 C   0  0  0  0  0  0  0  0  0  0  0  0
    4.6045   -1.3629    0.0000 C   0  0  0  0  0  0  0  0  0  0  0  0
    3.4626   -0.7091    0.0000 C   0  0  0  0  0  0  0  0  0  0  0  0
    2.3115   -1.3906    0.0000 C   0  0  0  0  0  0  0  0  0  0  0  0
    1.1511   -0.7275    0.0000 C   0  0  0  0  0  0  0  0  0  0  0  0
    2.3115   -2.7075    0.0000 C   0  0  0  0  0  0  0  0  0  0  0  0
    0.0000   -1.3998    0.0000 C   0  0  0  0  0  0  0  0  0  0  0  0
    1.1603   -3.3797    0.0000 C   0  0  0  0  0  0  0  0  0  0  0  0
    0.0092   -2.7351    0.0000 C   0  0  0  0  0  0  0  0  0  0  0  0
  1  2  2  0  0  0  0 
  1  3  2  0  0  0  0 
  2  4  1  0  0  0  0 
  4  5  1  0  0  0  0 
  5  6  1  0  0  0  0 
  6  7  1  0  0  0  0 
  8  7  2  0  0  0  0 
  7  9  1  0  0  0  0 
 10  8  1  0  0  0  0 
 11  9  2  0  0  0  0 
 12 10  2  0  0  0  0 
 11 12  1  0  0  0  0 
M  END
> <Name>
3-Phenylpropyl isothiocyanate

> <Source>
DSSTox2DMolFile

> <Tox>
5.538

> <CAS>
2627-27-2

$$$$

  CDK

 11 11  0  0  0  0  0  0  0  0999 V2000
    2.4939    0.8652    0.0000 C   0  0  0  0  0  0  0  0  0  0  0  0
    1.5269    0.8652    0.0000 C   0  0  0  0  0  0  0  0  0  0  0  0
    3.0029    1.6796    0.0000 C   0  0  0  0  0  0  0  0  0  0  0  0
    3.0538    0.0000    0.0000 O   0  0  0  0  0  0  0  0  0  0  0  0
    1.0179    1.6796    0.0000 C   0  0  0  0  0  0  0  0  0  0  0  0
    1.0179    0.0000    0.0000 C   0  0  0  0  0  0  0  0  0  0  0  0
    2.4939    2.5957    0.0000 C   0  0  0  0  0  0  0  0  0  0  0  0
    4.0208    1.6796    0.0000 I   0  0  0  0  0  0  0  0  0  0  0  0
    1.5269    2.5957    0.0000 C   0  0  0  0  0  0  0  0  0  0  0  0
    0.0000    0.0000    0.0000 O   0  0  0  0  0  0  0  0  0  0  0  0
    1.0688    3.4610    0.0000 I   0  0  0  0  0  0  0  0  0  0  0  0
  2  1  2  0  0  0  0 
  1  3  1  0  0  0  0 
  1  4  1  0  0  0  0 
  5  2  1  0  0  0  0 
  2  6  1  0  0  0  0 
  3  7  2  0  0  0  0 
  3  8  1  0  0  0  0 
  9  5  2  0  0  0  0 
  6 10  2  0  0  0  0 
  7  9  1  0  0  0  0 
  9 11  1  0  0  0  0 
M  END
> <Name>
3,5-Diiodosalicylaldehyde

> <Source>
NIST2DMolFile

> <Tox>
5.340

> <CAS>
2631-77-8

$$$$

  CDK

 15 15  0  0  0  0  0  0  0  0999 V2000
    0.0000    0.0000    0.0000 O   0  0  0  0  0  0  0  0  0  0  0  0
   -0.8400   -0.5000   -0.7600 N   0  0  0  0  0  0  0  0  0  0  0  0
   -1.2600    0.0200   -1.7600 O   0  0  0  0  0  0  0  0  0  0  0  0
   -1.3200   -1.7600   -0.4400 C   0  0  0  0  0  0  0  0  0  0  0  0
   -0.4200   -2.8000   -0.2000 C   0  0  0  0  0  0  0  0  0  0  0  0
   -2.7200   -1.9800   -0.3600 C   0  0  0  0  0  0  0  0  0  0  0  0
    1.2800   -2.5400   -0.3000 Cl  0  0  0  0  0  0  0  0  0  0  0  0
   -0.9200   -4.0800    0.1400 C   0  0  0  0  0  0  0  0  0  0  0  0
   -3.2000   -3.2600   -0.0200 C   0  0  0  0  0  0  0  0  0  0  0  0
   -3.7800   -0.6600   -0.6600 Cl  0  0  0  0  0  0  0  0  0  0  0  0
   -0.0400   -5.1400    0.3800 N   0  0  0  0  0  0  0  0  0  0  0  0
   -2.3000   -4.3200    0.2200 C   0  0  0  0  0  0  0  0  0  0  0  0
   -4.8800   -3.6200    0.0800 Cl  0  0  0  0  0  0  0  0  0  0  0  0
   -0.4400   -6.2600    0.1200 O   0  0  0  0  0  0  0  0  0  0  0  0
    1.0600   -4.8600    0.8600 O   0  0  0  0  0  0  0  0  0  0  0  0
  1  2  1  0  0  0  0 
  2  3  2  0  0  0  0 
  2  4  1  0  0  0  0 
  4  5  2  0  0  0  0 
  4  6  1  0  0  0  0 
  5  7  1  0  0  0  0 
  5  8  1  0  0  0  0 
  9  6  2  0  0  0  0 
  6 10  1  0  0  0  0 
 11  8  1  0  0  0  0 
  8 12  2  0  0  0  0 
 12  9  1  0  0  0  0 
  9 13  1  0  0  0  0 
 11 14  2  0  0  0  0 
 11 15  1  0  0  0  0 
M  CHG  1   1  -1
M  CHG  1   2   1
M  CHG  1  11   1
M  CHG  1  15  -1
M  END
> <Name>
Benzene, 1,2,4-trichloro-3,5-dinitro-

> <Source>
NIH3DMolFile

> <Tox>
5.600

> <CAS>
2678-21-9

$$$$

  CDK

  7  6  0  0  0  0  0  0  0  0999 V2000
    0.2988    0.3181    0.0343 C   0  0  0  0  0  0  0  0  0  0  0  0
    1.4370   -0.6314    0.1263 C   0  0  0  0  0  0  0  0  0  0  0  0
    0.4338    1.5223   -0.1327 O   0  0  0  0  0  0  0  0  0  0  0  0
   -1.0317   -0.1937    0.2469 N   0  0  0  0  0  0  0  0  0  0  0  0
    2.6987   -0.2443   -0.0349 C   0  0  0  0  0  0  0  0  0  0  0  0
   -2.1674    0.7304    0.0292 C   0  0  0  0  0  0  0  0  0  0  0  0
   -1.3161   -1.5756   -0.1983 C   0  0  0  0  0  0  0  0  0  0  0  0
  1  2  1  0  0  0  0 
  1  3  2  0  0  0  0 
  1  4  1  0  0  0  0 
  2  5  2  0  0  0  0 
  4  6  1  0  0  0  0 
  4  7  1  0  0  0  0 
M  END
> <Name>
2-Propenamide, N,N-dimethyl-

> <Source>
DougDB3DMolFile

> <Tox>
1.764

> <CAS>
2680-03-7

$$$$

  CDK

 12 12  0  0  0  0  0  0  0  0999 V2000
    3.3802    1.5135    0.0000 C   0  0  0  0  0  0  0  0  0  0  0  0
    3.3802    2.4721    0.0000 C   0  0  0  0  0  0  0  0  0  0  0  0
    2.5226    0.9586    0.0000 C   0  0  0  0  0  0  0  0  0  0  0  0
    2.5226    3.0271    0.0000 C   0  0  0  0  0  0  0  0  0  0  0  0
    4.2884    3.0775    0.0000 Cl  0  0  0  0  0  0  0  0  0  0  0  0
    1.6649    1.5640    0.0000 C   0  0  0  0  0  0  0  0  0  0  0  0
    2.5226    0.0000    0.0000 Cl  0  0  0  0  0  0  0  0  0  0  0  0
    1.6649    2.4721    0.0000 C   0  0  0  0  0  0  0  0  0  0  0  0
    2.5226    3.9352    0.0000 N   0  0  0  0  0  0  0  0  0  0  0  0
    0.8577    3.0271    0.0000 N   0  0  0  0  0  0  0  0  0  0  0  0
    0.8577    4.0866    0.0000 O   0  0  0  0  0  0  0  0  0  0  0  0
    0.0000    2.4721    0.0000 O   0  0  0  0  0  0  0  0  0  0  0  0
  2  1  2  0  0  0  0 
  1  3  1  0  0  0  0 
  4  2  1  0  0  0  0 
  2  5  1  0  0  0  0 
  3  6  2  0  0  0  0 
  3  7  1  0  0  0  0 
  8  4  2  0  0  0  0 
  4  9  1  0  0  0  0 
  6  8  1  0  0  0  0 
  8 10  1  0  0  0  0 
 10 11  2  0  0  0  0 
 10 12  2  0  0  0  0 
M  END
> <Name>
2,4-Dichloro-6-nitroaniline

> <Source>
NIST2DMolFile

> <Tox>
4.260

> <CAS>
2683-43-4

$$$$

  CDK

  8  8  0  0  0  0  0  0  0  0999 V2000
   -1.8217    0.2309    0.0000 O   0  0  0  0  0  0  0  0  0  0  0  0
   -1.1877   -0.2969    0.0000 C   0  0  0  0  0  0  0  0  0  0  0  0
   -0.4135   -0.0117    0.0000 C   0  0  0  0  0  0  0  0  0  0  0  0
    0.2722   -0.4703    0.0000 C   0  0  0  0  0  0  0  0  0  0  0  0
   -0.1893    0.7822    0.0000 O   0  0  0  0  0  0  0  0  0  0  0  0
    0.9203    0.0401    0.0000 C   0  0  0  0  0  0  0  0  0  0  0  0
    0.6351    0.8143    0.0000 C   0  0  0  0  0  0  0  0  0  0  0  0
    1.0938    1.5000    0.0000 I   0  0  0  0  0  0  0  0  0  0  0  0
  1  2  2  0  0  0  0 
  2  3  1  0  0  0  0 
  3  4  2  0  0  0  0 
  3  5  1  0  0  0  0 
  4  6  1  0  0  0  0 
  7  5  1  0  0  0  0 
  6  7  2  0  0  0  0 
  7  8  1  0  0  0  0 
M  END
> <Name>
2-Furaldehyde,5-iodo- (6CI,7CI,8CI)

> <Source>
Smiles

> <Tox>
3.330

> <CAS>
2689-65-8

$$$$

  CDK

 12 12  0  0  0  0  0  0  0  0999 V2000
    5.2164    0.5016    0.0000 C   0  0  0  0  0  0  0  0  0  0  0  0
    4.3637    0.0000    0.0000 C   0  0  0  0  0  0  0  0  0  0  0  0
    5.2164    1.5047    0.0000 C   0  0  0  0  0  0  0  0  0  0  0  0
    3.5111    0.5016    0.0000 C   0  0  0  0  0  0  0  0  0  0  0  0
    4.3637    2.0063    0.0000 C   0  0  0  0  0  0  0  0  0  0  0  0
    3.5111    1.5047    0.0000 C   0  0  0  0  0  0  0  0  0  0  0  0
    2.6082    2.0063    0.0000 C   0  0  0  0  0  0  0  0  0  0  0  0
    1.7555    1.5047    0.0000 C   0  0  0  0  0  0  0  0  0  0  0  0
    0.9028    2.0063    0.0000 C   0  0  0  0  0  0  0  0  0  0  0  0
    1.7555    0.5016    0.0000 C   0  0  0  0  0  0  0  0  0  0  0  0
    0.0000    1.5047    0.0000 N   0  0  0  0  0  0  0  0  0  0  0  0
    0.9028    0.0000    0.0000 N   0  0  0  0  0  0  0  0  0  0  0  0
  2  1  2  0  0  0  0 
  1  3  1  0  0  0  0 
  4  2  1  0  0  0  0 
  3  5  2  0  0  0  0 
  6  4  2  0  0  0  0 
  5  6  1  0  0  0  0 
  6  7  1  0  0  0  0 
  7  8  2  0  0  0  0 
  8  9  1  0  0  0  0 
  8 10  1  0  0  0  0 
  9 11  3  0  0  0  0 
 10 12  3  0  0  0  0 
M  END
> <Name>
Propanedinitrile, (phenylmethylene)- (9CI)

> <Source>
NIST2DMolFile

> <Tox>
3.640

> <CAS>
2700-22-3

$$$$

  CDK

  9  9  0  0  0  0  0  0  0  0999 V2000
    1.9934   -0.0000    0.0000 N   0  0  0  0  0  0  0  0  0  0  0  0
    2.6578   -1.1553    0.0000 C   0  0  0  0  0  0  0  0  0  0  0  0
    0.6645   -0.0000    0.0000 C   0  0  0  0  0  0  0  0  0  0  0  0
    3.9928   -1.1553    0.0000 C   0  0  0  0  0  0  0  0  0  0  0  0
    1.9934   -2.3047    0.0000 C   0  0  0  0  0  0  0  0  0  0  0  0
    0.0000   -1.1553    0.0000 C   0  0  0  0  0  0  0  0  0  0  0  0
    4.6572   -2.3047    0.0000 C   0  0  0  0  0  0  0  0  0  0  0  0
    0.6645   -2.3047    0.0000 C   0  0  0  0  0  0  0  0  0  0  0  0
    5.9861   -2.3047    0.0000 N   0  0  0  0  0  0  0  0  0  0  0  0
  1  2  2  0  0  0  0 
  1  3  1  0  0  0  0 
  2  4  1  0  0  0  0 
  2  5  1  0  0  0  0 
  6  3  2  0  0  0  0 
  4  7  1  0  0  0  0 
  5  8  2  0  0  0  0 
  8  6  1  0  0  0  0 
  7  9  1  0  0  0  0 
M  END
> <Name>
2-pyridin-2-ylethanamine

> <Source>
DSSTox2DMolFile

> <Tox>
2.260

> <CAS>
2706-56-1

$$$$

  CDK

 11 11  0  0  0  0  0  0  0  0999 V2000
    5.8012    2.3507    0.9161 C   0  0  0  0  0  0  0  0  0  0  0  0
    4.4992    1.9427    1.1831 C   0  0  0  0  0  0  0  0  0  0  0  0
    6.1916    3.6579    1.1858 C   0  0  0  0  0  0  0  0  0  0  0  0
    3.5751    2.8398    1.7220 C   0  0  0  0  0  0  0  0  0  0  0  0
    5.2768    4.5564    1.7232 C   0  0  0  0  0  0  0  0  0  0  0  0
    3.9741    4.1505    1.9902 C   0  0  0  0  0  0  0  0  0  0  0  0
    2.1605    2.4171    2.0154 C   0  0  0  0  0  0  0  0  0  0  0  0
    2.1509    1.2895    3.0516 C   0  0  0  0  0  0  0  0  0  0  0  0
    1.4525    2.0090    0.7315 C   0  0  0  0  0  0  0  0  0  0  0  0
    0.7722    1.1318    3.6909 C   0  0  0  0  0  0  0  0  0  0  0  0
    0.8628    0.0937    4.6397 O   0  0  0  0  0  0  0  0  0  0  0  0
  1  2  2  0  0  0  0 
  3  1  1  0  0  0  0 
  2  4  1  0  0  0  0 
  5  3  2  0  0  0  0 
  4  6  2  0  0  0  0 
  4  7  1  0  0  0  0 
  6  5  1  0  0  0  0 
  7  8  1  0  0  0  0 
  7  9  1  0  0  0  0 
  8 10  1  0  0  0  0 
 10 11  1  0  0  0  0 
M  END
> <Name>
Benzenepropanol, gamma-methyl-

> <Source>
NIST3DMolFile

> <Tox>
3.010

> <CAS>
2722-36-3

$$$$

  CDK

 10 10  0  0  0  0  0  0  0  0999 V2000
    0.0000    1.7138    0.0000 O   0  0  0  0  0  0  0  0  0  0  0  0
    0.5041    0.8569    0.0000 C   0  0  0  0  0  0  0  0  0  0  0  0
    0.0000    0.0000    0.0000 N   0  0  0  0  0  0  0  0  0  0  0  0
    1.5122    0.8569    0.0000 C   0  0  0  0  0  0  0  0  0  0  0  0
    2.0162    1.7138    0.0000 C   0  0  0  0  0  0  0  0  0  0  0  0
    2.0162    0.0000    0.0000 C   0  0  0  0  0  0  0  0  0  0  0  0
    3.0244    1.7138    0.0000 C   0  0  0  0  0  0  0  0  0  0  0  0
    3.0244    0.0000    0.0000 C   0  0  0  0  0  0  0  0  0  0  0  0
    3.5788    0.8569    0.0000 C   0  0  0  0  0  0  0  0  0  0  0  0
    4.5365    0.8569    0.0000 N   0  0  0  0  0  0  0  0  0  0  0  0
  1  2  2  0  0  0  0 
  2  3  1  0  0  0  0 
  2  4  1  0  0  0  0 
  4  5  2  0  0  0  0 
  6  4  1  0  0  0  0 
  5  7  1  0  0  0  0 
  8  6  2  0  0  0  0 
  7  9  2  0  0  0  0 
  9  8  1  0  0  0  0 
 10  9  1  0  0  0  0 
M  END
> <Name>
Benzamide, p-amino- (8CI)

> <Source>
NIST2DMolFile

> <Tox>
2.090

> <CAS>
2835-68-9

$$$$

  CDK

  9  9  0  0  0  0  0  0  0  0999 V2000
   -2.4524    0.9240    0.0002 O   0  0  0  0  0  0  0  0  0  0  0  0
   -1.1360    0.5725    0.0000 C   0  0  0  0  0  0  0  0  0  0  0  0
   -0.7557   -0.7696   -0.0001 C   0  0  0  0  0  0  0  0  0  0  0  0
   -0.1637    1.5729    0.0000 C   0  0  0  0  0  0  0  0  0  0  0  0
    0.5968   -1.1112   -0.0002 C   0  0  0  0  0  0  0  0  0  0  0  0
   -1.7828   -1.8533    0.0000 C   0  0  0  0  0  0  0  0  0  0  0  0
    1.1886    1.2312   -0.0002 C   0  0  0  0  0  0  0  0  0  0  0  0
    1.5688   -0.1107   -0.0002 C   0  0  0  0  0  0  0  0  0  0  0  0
    2.9363   -0.4558    0.0004 N   0  0  0  0  0  0  0  0  0  0  0  0
  1  2  1  0  0  0  0 
  3  2  2  0  0  0  0 
  2  4  1  0  0  0  0 
  3  5  1  0  0  0  0 
  3  6  1  0  0  0  0 
  4  7  2  0  0  0  0 
  5  8  2  0  0  0  0 
  8  7  1  0  0  0  0 
  9  8  1  0  0  0  0 
M  END
> <Name>
4-amino-2-methylphenol

> <Source>
Chemidplus3DMolFile

> <Tox>
4.310

> <CAS>
2835-96-3

$$$$

  CDK

  9  9  0  0  0  0  0  0  0  0999 V2000
    0.8469    1.4945    0.0000 C   0  0  0  0  0  0  0  0  0  0  0  0
    1.7435    1.9926    0.0000 C   0  0  0  0  0  0  0  0  0  0  0  0
    0.8469    0.4982    0.0000 C   0  0  0  0  0  0  0  0  0  0  0  0
    0.0000    1.9926    0.0000 Cl  0  0  0  0  0  0  0  0  0  0  0  0
    2.5904    1.4945    0.0000 C   0  0  0  0  0  0  0  0  0  0  0  0
    1.7435    0.0000    0.0000 C   0  0  0  0  0  0  0  0  0  0  0  0
    2.5904    0.4982    0.0000 C   0  0  0  0  0  0  0  0  0  0  0  0
    3.4373    1.9926    0.0000 O   0  0  0  0  0  0  0  0  0  0  0  0
    4.3340    1.4945    0.0000 C   0  0  0  0  0  0  0  0  0  0  0  0
  1  2  2  0  0  0  0 
  3  1  1  0  0  0  0 
  1  4  1  0  0  0  0 
  2  5  1  0  0  0  0 
  6  3  2  0  0  0  0 
  5  7  2  0  0  0  0 
  5  8  1  0  0  0  0 
  7  6  1  0  0  0  0 
  8  9  1  0  0  0  0 
M  END
> <Name>
1-chloro-3-methoxybenzene

> <Source>
NIST2DMolFile

> <Tox>
3.290

> <CAS>
2845-89-8

$$$$

  CDK

 10 10  0  0  0  0  0  0  0  0999 V2000
    5.7570   -0.0000    0.0000 N   0  0  0  0  0  0  0  0  0  0  0  0
    6.9112   -0.6635    0.0000 C   0  0  0  0  0  0  0  0  0  0  0  0
    4.6098   -0.6635    0.0000 C   0  0  0  0  0  0  0  0  0  0  0  0
    6.9112   -1.9973    0.0000 C   0  0  0  0  0  0  0  0  0  0  0  0
    4.6098   -1.9973    0.0000 C   0  0  0  0  0  0  0  0  0  0  0  0
    5.7570   -2.6608    0.0000 C   0  0  0  0  0  0  0  0  0  0  0  0
    3.4556   -2.6608    0.0000 C   0  0  0  0  0  0  0  0  0  0  0  0
    2.3014   -1.9973    0.0000 C   0  0  0  0  0  0  0  0  0  0  0  0
    1.1542   -2.6608    0.0000 C   0  0  0  0  0  0  0  0  0  0  0  0
    0.0000   -1.9973    0.0000 O   0  0  0  0  0  0  0  0  0  0  0  0
  1  2  2  0  0  0  0 
  1  3  1  0  0  0  0 
  2  4  1  0  0  0  0 
  3  5  2  0  0  0  0 
  4  6  2  0  0  0  0 
  6  5  1  0  0  0  0 
  5  7  1  0  0  0  0 
  7  8  1  0  0  0  0 
  8  9  1  0  0  0  0 
  9 10  1  0  0  0  0 
M  END
> <Name>
3-(3-Pyridyl)propan-1-ol

> <Source>
DSSTox2DMolFile

> <Tox>
2.160

> <CAS>
2859-67-8

$$$$

  CDK

  7  7  0  0  0  0  0  0  0  0999 V2000
    3.0534    0.4894   -0.0002 Br  0  0  0  0  0  0  0  0  0  0  0  0
    1.2000    0.0749   -0.0001 C   0  0  0  0  0  0  0  0  0  0  0  0
   -0.0347    1.2615    0.0002 S   0  0  0  0  0  0  0  0  0  0  0  0
    0.6880   -1.2039    0.0000 C   0  0  0  0  0  0  0  0  0  0  0  0
   -1.2594    0.0648    0.0002 C   0  0  0  0  0  0  0  0  0  0  0  0
   -0.7369   -1.2097    0.0001 C   0  0  0  0  0  0  0  0  0  0  0  0
   -2.9104    0.5229   -0.0003 Cl  0  0  0  0  0  0  0  0  0  0  0  0
  1  2  1  0  0  0  0 
  3  2  1  0  0  0  0 
  4  2  2  0  0  0  0 
  3  5  1  0  0  0  0 
  4  6  1  0  0  0  0 
  7  5  1  0  0  0  0 
  6  5  2  0  0  0  0 
M  END
> <Name>
2-bromo-5-chlorothiophene

> <Source>
Chemidplus3DMolFile

> <Tox>
3.750

> <CAS>
2873-18-9

$$$$

  CDK

 10 10  0  0  0  0  0  0  0  0999 V2000
    0.8683    1.4812    0.0000 C   0  0  0  0  0  0  0  0  0  0  0  0
    1.7366    1.9920    0.0000 C   0  0  0  0  0  0  0  0  0  0  0  0
    0.8683    0.5108    0.0000 C   0  0  0  0  0  0  0  0  0  0  0  0
    0.0000    1.9920    0.0000 F   0  0  0  0  0  0  0  0  0  0  0  0
    2.6049    1.4812    0.0000 C   0  0  0  0  0  0  0  0  0  0  0  0
    1.7366    0.0000    0.0000 N   0  0  0  0  0  0  0  0  0  0  0  0
    0.0000    0.0000    0.0000 F   0  0  0  0  0  0  0  0  0  0  0  0
    2.6049    0.5108    0.0000 C   0  0  0  0  0  0  0  0  0  0  0  0
    3.4732    1.9920    0.0000 F   0  0  0  0  0  0  0  0  0  0  0  0
    3.4732    0.0000    0.0000 F   0  0  0  0  0  0  0  0  0  0  0  0
  1  2  2  0  0  0  0 
  3  1  1  0  0  0  0 
  1  4  1  0  0  0  0 
  2  5  1  0  0  0  0 
  6  3  2  0  0  0  0 
  3  7  1  0  0  0  0 
  5  8  2  0  0  0  0 
  5  9  1  0  0  0  0 
  8  6  1  0  0  0  0 
  8 10  1  0  0  0  0 
M  END
> <Name>
2,3,5,6-tetrafluoropyridine

> <Source>
NIST2DMolFile

> <Tox>
2.390

> <CAS>
2875-18-5

$$$$

  CDK

 12 12  0  0  0  0  0  0  0  0999 V2000
    2.6579   -1.1544    0.0000 C   0  0  0  0  0  0  0  0  0  0  0  0
    1.9970   -0.0000    0.0000 Cl  0  0  0  0  0  0  0  0  0  0  0  0
    3.9893   -1.1544    0.0000 C   0  0  0  0  0  0  0  0  0  0  0  0
    1.9970   -2.3042    0.0000 C   0  0  0  0  0  0  0  0  0  0  0  0
    4.6549   -2.3042    0.0000 C   0  0  0  0  0  0  0  0  0  0  0  0
    2.6579   -3.4586    0.0000 C   0  0  0  0  0  0  0  0  0  0  0  0
    0.6657   -2.3042    0.0000 C   0  0  0  0  0  0  0  0  0  0  0  0
    3.9893   -3.4586    0.0000 C   0  0  0  0  0  0  0  0  0  0  0  0
    0.0000   -1.1544    0.0000 O   0  0  0  0  0  0  0  0  0  0  0  0
    0.0000   -3.4586    0.0000 O   0  0  0  0  0  0  0  0  0  0  0  0
    4.6549   -4.6084    0.0000 Cl  0  0  0  0  0  0  0  0  0  0  0  0
    0.6657   -4.6084    0.0000 C   0  0  0  0  0  0  0  0  0  0  0  0
  1  2  1  0  0  0  0 
  1  3  2  0  0  0  0 
  1  4  1  0  0  0  0 
  3  5  1  0  0  0  0 
  6  4  2  0  0  0  0 
  4  7  1  0  0  0  0 
  5  8  2  0  0  0  0 
  8  6  1  0  0  0  0 
  7  9  2  0  0  0  0 
  7 10  1  0  0  0  0 
  8 11  1  0  0  0  0 
 10 12  1  0  0  0  0 
M  END
> <Name>
Benzoic acid, 2,5-dichloro-, methyl ester

> <Source>
DSSTox2DMolFile

> <Tox>
3.810

> <CAS>
2905-69-3

$$$$

  CDK

 14 15  0  0  0  0  0  0  0  0999 V2000
   -5.3150    0.0000   -0.0001 N   0  0  0  0  0  0  0  0  0  0  0  0
   -4.1530    0.0000   -0.0001 C   0  0  0  0  0  0  0  0  0  0  0  0
   -2.7242   -0.0001    0.0000 C   0  0  0  0  0  0  0  0  0  0  0  0
   -2.0267   -0.8269   -0.8807 C   0  0  0  0  0  0  0  0  0  0  0  0
   -2.0268    0.8268    0.8807 C   0  0  0  0  0  0  0  0  0  0  0  0
   -0.6318   -0.8269   -0.8805 C   0  0  0  0  0  0  0  0  0  0  0  0
   -0.6319    0.8269    0.8806 C   0  0  0  0  0  0  0  0  0  0  0  0
    0.0656    0.0000    0.0001 C   0  0  0  0  0  0  0  0  0  0  0  0
    1.5123    0.0001    0.0002 C   0  0  0  0  0  0  0  0  0  0  0  0
    2.2100   -0.8806    0.8268 C   0  0  0  0  0  0  0  0  0  0  0  0
    2.2098    0.8807   -0.8267 C   0  0  0  0  0  0  0  0  0  0  0  0
    3.6049   -0.8807    0.8268 C   0  0  0  0  0  0  0  0  0  0  0  0
    3.6047    0.8807   -0.8270 C   0  0  0  0  0  0  0  0  0  0  0  0
    4.3022   -0.0001   -0.0002 C   0  0  0  0  0  0  0  0  0  0  0  0
  1  2  3  0  0  0  0 
  3  2  1  0  0  0  0 
  4  3  2  0  0  0  0 
  5  3  1  0  0  0  0 
  6  4  1  0  0  0  0 
  7  5  2  0  0  0  0 
  8  6  2  0  0  0  0 
  8  7  1  0  0  0  0 
  8  9  1  0  0  0  0 
  9 10  2  0  0  0  0 
  9 11  1  0  0  0  0 
 10 12  1  0  0  0  0 
 11 13  2  0  0  0  0 
 12 14  2  0  0  0  0 
 13 14  1  0  0  0  0 
M  END
> <Name>
4-phenylbenzonitrile

> <Source>
Chemidplus3DMolFile

> <Tox>
4.240

> <CAS>
2920-38-9

$$$$

  CDK

 14 15  0  0  0  0  0  0  0  0999 V2000
    0.6100   -2.7694   -0.5102 O   0  0  0  0  0  0  0  0  0  0  0  0
    0.7836   -1.9955    0.6690 C   0  0  0  0  0  0  0  0  0  0  0  0
    1.3951   -0.6793    0.3095 C   0  0  0  0  0  0  0  0  0  0  0  0
    0.6059    0.4268   -0.0114 C   0  0  0  0  0  0  0  0  0  0  0  0
    2.7858   -0.5726    0.2990 C   0  0  0  0  0  0  0  0  0  0  0  0
   -0.8385    0.3423   -0.0080 C   0  0  0  0  0  0  0  0  0  0  0  0
    1.2123    1.6398   -0.3427 C   0  0  0  0  0  0  0  0  0  0  0  0
    3.3899    0.6403   -0.0322 C   0  0  0  0  0  0  0  0  0  0  0  0
   -1.5184   -0.0244   -1.1694 C   0  0  0  0  0  0  0  0  0  0  0  0
   -1.5510    0.6271    1.1567 C   0  0  0  0  0  0  0  0  0  0  0  0
    2.6032    1.7465   -0.3530 C   0  0  0  0  0  0  0  0  0  0  0  0
   -2.9110   -0.1060   -1.1661 C   0  0  0  0  0  0  0  0  0  0  0  0
   -2.9435    0.5454    1.1602 C   0  0  0  0  0  0  0  0  0  0  0  0
   -3.6234    0.1789   -0.0013 C   0  0  0  0  0  0  0  0  0  0  0  0
  1  2  1  0  0  0  0 
  3  2  1  0  0  0  0 
  4  3  1  0  0  0  0 
  3  5  2  0  0  0  0 
  4  6  1  0  0  0  0 
  4  7  2  0  0  0  0 
  5  8  1  0  0  0  0 
  6  9  2  0  0  0  0 
  6 10  1  0  0  0  0 
  7 11  1  0  0  0  0 
 11  8  2  0  0  0  0 
  9 12  1  0  0  0  0 
 10 13  2  0  0  0  0 
 12 14  2  0  0  0  0 
 13 14  1  0  0  0  0 
M  END
> <Name>
(2-phenylphenyl)methanol

> <Source>
Chemidplus3DMolFile

> <Tox>
3.820

> <CAS>
2928-43-0

$$$$

  CDK

  8  7  0  0  0  0  0  0  0  0999 V2000
    3.1013    0.3547    0.0832 C   0  0  0  0  0  0  0  0  0  0  0  0
    1.6657    0.0298   -0.3235 C   0  0  0  0  0  0  0  0  0  0  0  0
    0.6976    1.0777    0.2580 C   0  0  0  0  0  0  0  0  0  0  0  0
    1.3953   -1.2752    0.1444 O   0  0  0  0  0  0  0  0  0  0  0  0
   -0.6960    1.0350   -0.3524 C   0  0  0  0  0  0  0  0  0  0  0  0
   -1.6422    0.0303    0.3233 C   0  0  0  0  0  0  0  0  0  0  0  0
   -3.1016    0.3874    0.0443 C   0  0  0  0  0  0  0  0  0  0  0  0
   -1.3297   -1.2558   -0.1959 O   0  0  0  0  0  0  0  0  0  0  0  0
  1  2  1  0  0  0  0 
  2  3  1  0  0  0  0 
  2  4  1  0  0  0  0 
  3  5  1  0  0  0  0 
  5  6  1  0  0  0  0 
  6  7  1  0  0  0  0 
  6  8  1  0  0  0  0 
M  END
> <Name>
2,4-Hexanediol

> <Source>
DougDB3DMolFile

> <Tox>
1.040

> <CAS>
2935-44-6

$$$$

  CDK

  9  8  0  0  0  0  0  0  0  0999 V2000
    0.0000    0.5065    0.0000 Br  0  0  0  0  0  0  0  0  0  0  0  0
    0.8611    0.0000    0.0000 C   0  0  0  0  0  0  0  0  0  0  0  0
    1.7221    0.5065    0.0000 C   0  0  0  0  0  0  0  0  0  0  0  0
    2.6339    0.0000    0.0000 C   0  0  0  0  0  0  0  0  0  0  0  0
    3.4443    0.5065    0.0000 C   0  0  0  0  0  0  0  0  0  0  0  0
    4.3054    0.0000    0.0000 O   0  0  0  0  0  0  0  0  0  0  0  0
    3.4443    1.4689    0.0000 O   0  0  0  0  0  0  0  0  0  0  0  0
    5.2171    0.5065    0.0000 C   0  0  0  0  0  0  0  0  0  0  0  0
    6.0781    0.0000    0.0000 C   0  0  0  0  0  0  0  0  0  0  0  0
  1  2  1  0  0  0  0 
  2  3  1  0  0  0  0 
  4  3  1  0  0  0  0 
  5  4  1  0  0  0  0 
  5  6  1  0  0  0  0 
  5  7  2  0  0  0  0 
  6  8  1  0  0  0  0 
  9  8  1  0  0  0  0 
M  END
> <Name>
Butanoic acid, 4-bromo-, ethyl ester (9CI)

> <Source>
NIST2DMolFile

> <Tox>
2.971

> <CAS>
2969-81-5

$$$$

  CDK

 11 11  0  0  0  0  0  0  0  0999 V2000
    3.5129    1.7310    0.0000 C   0  0  0  0  0  0  0  0  0  0  0  0
    3.0038    2.5965    0.0000 C   0  0  0  0  0  0  0  0  0  0  0  0
    3.0038    0.8655    0.0000 C   0  0  0  0  0  0  0  0  0  0  0  0
    4.5311    1.7310    0.0000 O   0  0  0  0  0  0  0  0  0  0  0  0
    2.0365    2.5965    0.0000 C   0  0  0  0  0  0  0  0  0  0  0  0
    3.5129    3.4620    0.0000 Br  0  0  0  0  0  0  0  0  0  0  0  0
    2.0365    0.8655    0.0000 C   0  0  0  0  0  0  0  0  0  0  0  0
    3.5129    0.0000    0.0000 Br  0  0  0  0  0  0  0  0  0  0  0  0
    1.5273    1.7310    0.0000 C   0  0  0  0  0  0  0  0  0  0  0  0
    0.5091    1.7310    0.0000 C   0  0  0  0  0  0  0  0  0  0  0  0
    0.0000    2.5965    0.0000 O   0  0  0  0  0  0  0  0  0  0  0  0
  2  1  2  0  0  0  0 
  1  3  1  0  0  0  0 
  1  4  1  0  0  0  0 
  5  2  1  0  0  0  0 
  2  6  1  0  0  0  0 
  3  7  2  0  0  0  0 
  3  8  1  0  0  0  0 
  9  5  2  0  0  0  0 
  7  9  1  0  0  0  0 
  9 10  1  0  0  0  0 
 10 11  2  0  0  0  0 
M  END
> <Name>
3,5-Dibromo-4-hydroxybenzaldehyde

> <Source>
NIST2DMolFile

> <Tox>
3.890

> <CAS>
2973-77-5

$$$$

  CDK

  6  5  0  0  0  0  0  0  0  0999 V2000
    1.9898    1.0204    0.0000 C   0  0  0  0  0  0  0  0  0  0  0  0
    0.9694    1.0204    0.0000 C   0  0  0  0  0  0  0  0  0  0  0  0
    3.0102    1.0204    0.0000 C   0  0  0  0  0  0  0  0  0  0  0  0
    0.9694    1.9898    0.0000 C   0  0  0  0  0  0  0  0  0  0  0  0
    0.9694    0.0000    0.0000 C   0  0  0  0  0  0  0  0  0  0  0  0
    0.0000    1.0204    0.0000 N   0  0  0  0  0  0  0  0  0  0  0  0
  1  2  1  0  0  0  0 
  1  3  3  0  0  0  0 
  2  4  1  0  0  0  0 
  2  5  1  0  0  0  0 
  2  6  1  0  0  0  0 
M  END
> <Name>
2-Propynylamine, 1,1-dimethyl- (6CI,7CI,8CI)

> <Source>
NIST2DMolFile

> <Tox>
2.090

> <CAS>
2978-58-7

$$$$

  CDK

  7  6  0  0  0  0  0  0  0  0999 V2000
    1.3789    3.3369    1.9281 C   0  0  0  0  0  0  0  0  0  0  0  0
    1.9571    1.9272    1.8187 C   0  0  0  0  0  0  0  0  0  0  0  0
    0.9607    1.0299    1.0858 C   0  0  0  0  0  0  0  0  0  0  0  0
    2.2075    1.3629    3.2153 C   0  0  0  0  0  0  0  0  0  0  0  0
    3.2712    1.9575    1.0217 C   0  0  0  0  0  0  0  0  0  0  0  0
    4.3116    2.8461    1.6581 C   0  0  0  0  0  0  0  0  0  0  0  0
    5.4969    2.6077    1.6267 O   0  0  0  0  0  0  0  0  0  0  0  0
  1  2  1  0  0  0  0 
  2  3  1  0  0  0  0 
  2  4  1  0  0  0  0 
  2  5  1  0  0  0  0 
  5  6  1  0  0  0  0 
  6  7  2  0  0  0  0 
M  END
> <Name>
3,3-Dimethylbutyraldehyde

> <Source>
NIST3DMolFile

> <Tox>
2.626

> <CAS>
2987-16-8

$$$$

  CDK

 10  9  0  0  0  0  0  0  0  0999 V2000
    4.5422   -3.6557   -5.4463 O   0  0  0  0  0  0  0  0  0  0  0  0
    3.7604   -4.0154   -6.5768 C   0  0  0  0  0  0  0  0  0  0  0  0
    4.0840   -4.1001   -4.2400 C   0  0  0  0  0  0  0  0  0  0  0  0
    4.4111   -3.4420   -7.8277 C   0  0  0  0  0  0  0  0  0  0  0  0
    3.0809   -4.7675   -4.0433 O   0  0  0  0  0  0  0  0  0  0  0  0
    5.0171   -3.6303   -3.1950 C   0  0  0  0  0  0  0  0  0  0  0  0
    3.6282   -3.8050   -9.0876 C   0  0  0  0  0  0  0  0  0  0  0  0
    4.7932   -3.9329   -1.9131 C   0  0  0  0  0  0  0  0  0  0  0  0
    4.3110   -3.2615  -10.3424 C   0  0  0  0  0  0  0  0  0  0  0  0
    3.5526   -3.6497  -11.6017 C   0  0  0  0  0  0  0  0  0  0  0  0
  1  2  1  0  0  0  0 
  1  3  1  0  0  0  0 
  4  2  1  0  0  0  0 
  5  3  2  0  0  0  0 
  3  6  1  0  0  0  0 
  7  4  1  0  0  0  0 
  6  8  2  0  0  0  0 
  7  9  1  0  0  0  0 
  9 10  1  0  0  0  0 
M  END
> <Name>
2-Propenoic acid, pentyl ester

> <Source>
Chemidplus3DMolFile

> <Tox>
3.540

> <CAS>
2998-23-4

$$$$

  CDK

 10 10  0  0  0  0  0  0  0  0999 V2000
    5.3173   -2.3077    0.0000 N   0  0  0  0  0  0  0  0  0  0  0  0
    4.6527   -1.1539    0.0000 C   0  0  0  0  0  0  0  0  0  0  0  0
    3.9880   -0.0000    0.0000 S   0  0  0  0  0  0  0  0  0  0  0  0
    2.6587   -0.0000    0.0000 C   0  0  0  0  0  0  0  0  0  0  0  0
    1.9940   -1.1539    0.0000 C   0  0  0  0  0  0  0  0  0  0  0  0
    2.6587   -2.3077    0.0000 C   0  0  0  0  0  0  0  0  0  0  0  0
    0.6647   -1.1539    0.0000 C   0  0  0  0  0  0  0  0  0  0  0  0
    1.9940   -3.4563    0.0000 C   0  0  0  0  0  0  0  0  0  0  0  0
    0.0000   -2.3077    0.0000 C   0  0  0  0  0  0  0  0  0  0  0  0
    0.6647   -3.4563    0.0000 C   0  0  0  0  0  0  0  0  0  0  0  0
  1  2  3  0  0  0  0 
  2  3  1  0  0  0  0 
  3  4  1  0  0  0  0 
  4  5  1  0  0  0  0 
  5  6  2  0  0  0  0 
  5  7  1  0  0  0  0 
  6  8  1  0  0  0  0 
  9  7  2  0  0  0  0 
  8 10  2  0  0  0  0 
 10  9  1  0  0  0  0 
M  END
> <Name>
Thiocyanic acid, phenylmethyl ester

> <Source>
DSSTox2DMolFile

> <Tox>
4.050

> <CAS>
3012-37-1

$$$$

  CDK

  5  4  0  0  0  0  0  0  0  0999 V2000
    0.0000   -0.0000    0.0000 N   0  0  0  0  0  0  0  0  0  0  0  0
    0.6633   -1.1503    0.0000 C   0  0  0  0  0  0  0  0  0  0  0  0
    1.3300   -2.3041    0.0000 C   0  0  0  0  0  0  0  0  0  0  0  0
    2.6600   -2.3041    0.0000 Cl  0  0  0  0  0  0  0  0  0  0  0  0
    0.6633   -3.4545    0.0000 Cl  0  0  0  0  0  0  0  0  0  0  0  0
  1  2  3  0  0  0  0 
  2  3  1  0  0  0  0 
  3  4  1  0  0  0  0 
  3  5  1  0  0  0  0 
M  END
> <Name>
Acetonitrile, dichloro-

> <Source>
DSSTox2DMolFile

> <Tox>
3.973

> <CAS>
3018-12-0

$$$$

  CDK

 10  9  0  0  0  0  0  0  0  0999 V2000
    2.2838    0.6569   -0.2797 O   0  0  0  0  0  0  0  0  0  0  0  0
    1.2423   -0.2316   -0.1654 C   0  0  0  0  0  0  0  0  0  0  0  0
    3.5328    0.0682   -0.2418 C   0  0  0  0  0  0  0  0  0  0  0  0
    1.3230   -1.4465   -0.0384 O   0  0  0  0  0  0  0  0  0  0  0  0
   -0.0552    0.5503   -0.1775 C   0  0  0  0  0  0  0  0  0  0  0  0
    4.4762    0.3332    0.6645 C   0  0  0  0  0  0  0  0  0  0  0  0
   -1.2928   -0.3335   -0.0225 C   0  0  0  0  0  0  0  0  0  0  0  0
   -2.5950    0.4728   -0.0475 C   0  0  0  0  0  0  0  0  0  0  0  0
   -3.8108   -0.4343    0.1437 C   0  0  0  0  0  0  0  0  0  0  0  0
   -5.1043    0.3644    0.1646 C   0  0  0  0  0  0  0  0  0  0  0  0
  1  2  1  0  0  0  0 
  1  3  1  0  0  0  0 
  4  2  2  0  0  0  0 
  5  2  1  0  0  0  0 
  3  6  2  0  0  0  0 
  7  5  1  0  0  0  0 
  8  7  1  0  0  0  0 
  8  9  1  0  0  0  0 
  9 10  1  0  0  0  0 
M  END
> <Name>
ethenyl hexanoate

> <Source>
Chemidplus3DMolFile

> <Tox>
3.080

> <CAS>
3050-69-9

$$$$

  CDK

 11 11  0  0  0  0  0  0  0  0999 V2000
    0.0000   -1.9968    0.0000 C   0  0  0  0  0  0  0  0  0  0  0  0
    1.1539   -2.6601    0.0000 C   0  0  0  0  0  0  0  0  0  0  0  0
    2.3008   -1.9968    0.0000 C   0  0  0  0  0  0  0  0  0  0  0  0
    2.3008   -0.6633    0.0000 O   0  0  0  0  0  0  0  0  0  0  0  0
    3.4547   -2.6601    0.0000 O   0  0  0  0  0  0  0  0  0  0  0  0
    4.6086   -1.9968    0.0000 C   0  0  0  0  0  0  0  0  0  0  0  0
    4.6086   -0.6633    0.0000 C   0  0  0  0  0  0  0  0  0  0  0  0
    5.7555   -2.6601    0.0000 C   0  0  0  0  0  0  0  0  0  0  0  0
    5.7555   -0.0000    0.0000 C   0  0  0  0  0  0  0  0  0  0  0  0
    6.9094   -1.9968    0.0000 C   0  0  0  0  0  0  0  0  0  0  0  0
    6.9094   -0.6633    0.0000 C   0  0  0  0  0  0  0  0  0  0  0  0
  1  2  2  0  0  0  0 
  2  3  1  0  0  0  0 
  3  4  2  0  0  0  0 
  3  5  1  0  0  0  0 
  5  6  1  0  0  0  0 
  6  7  1  0  0  0  0 
  6  8  1  0  0  0  0 
  7  9  1  0  0  0  0 
 10  8  1  0  0  0  0 
  9 11  1  0  0  0  0 
 11 10  1  0  0  0  0 
M  END
> <Name>
2-Propenoic acid, cyclohexyl ester

> <Source>
DSSTox2DMolFile

> <Tox>
3.760

> <CAS>
3066-71-5

$$$$

  CDK

 10 10  0  0  0  0  0  0  0  0999 V2000
   -2.7232    1.0974   -0.0002 O   0  0  0  0  0  0  0  0  0  0  0  0
   -2.1093   -0.0001    0.0002 N   0  0  0  0  0  0  0  0  0  0  0  0
   -2.7226   -1.0979    0.0000 O   0  0  0  0  0  0  0  0  0  0  0  0
   -0.6950    0.0003    0.0003 C   0  0  0  0  0  0  0  0  0  0  0  0
    0.0401    1.1681    0.0000 C   0  0  0  0  0  0  0  0  0  0  0  0
    0.0401   -1.1677    0.0000 C   0  0  0  0  0  0  0  0  0  0  0  0
    1.3887    1.2050   -0.0001 N   0  0  0  0  0  0  0  0  0  0  0  0
    1.3887   -1.2048   -0.0003 N   0  0  0  0  0  0  0  0  0  0  0  0
    1.9902    0.0001   -0.0003 C   0  0  0  0  0  0  0  0  0  0  0  0
    3.4024   -0.0004    0.0004 N   0  0  0  0  0  0  0  0  0  0  0  0
  1  2  1  0  0  0  0 
  3  2  2  0  0  0  0 
  2  4  1  0  0  0  0 
  4  5  1  0  0  0  0 
  4  6  2  0  0  0  0 
  7  5  2  0  0  0  0 
  8  6  1  0  0  0  0 
  7  9  1  0  0  0  0 
  8  9  2  0  0  0  0 
 10  9  1  0  0  0  0 
M  CHG  1   1  -1
M  CHG  1   2   1
M  END
> <Name>
5-nitropyrimidin-2-amine

> <Source>
Chemidplus3DMolFile

> <Tox>
2.570

> <CAS>
3073-77-6

$$$$

  CDK

 10 10  0  0  0  0  0  0  0  0999 V2000
    2.7594    0.5274    0.0024 O   0  0  0  0  0  0  0  0  0  0  0  0
    1.3970    0.5019   -0.0011 C   0  0  0  0  0  0  0  0  0  0  0  0
    0.7044   -0.7090   -0.0005 C   0  0  0  0  0  0  0  0  0  0  0  0
    0.6945    1.7071   -0.0012 C   0  0  0  0  0  0  0  0  0  0  0  0
   -0.6905   -0.7145    0.0000 C   0  0  0  0  0  0  0  0  0  0  0  0
    1.4652   -1.9965   -0.0002 C   0  0  0  0  0  0  0  0  0  0  0  0
   -0.7004    1.7015   -0.0006 C   0  0  0  0  0  0  0  0  0  0  0  0
   -1.3928    0.4907   -0.0001 C   0  0  0  0  0  0  0  0  0  0  0  0
   -1.4316   -2.0148   -0.0004 C   0  0  0  0  0  0  0  0  0  0  0  0
   -2.8052    0.5062    0.0017 N   0  0  0  0  0  0  0  0  0  0  0  0
  1  2  1  0  0  0  0 
  3  2  2  0  0  0  0 
  2  4  1  0  0  0  0 
  5  3  1  0  0  0  0 
  3  6  1  0  0  0  0 
  7  4  2  0  0  0  0 
  5  8  2  0  0  0  0 
  5  9  1  0  0  0  0 
  8  7  1  0  0  0  0 
 10  8  1  0  0  0  0 
M  END
> <Name>
4-amino-2,3-dimethylphenol

> <Source>
Chemidplus3DMolFile

> <Tox>
4.440

> <CAS>
3096-69-3

$$$$

  CDK

  9  9  0  0  0  0  0  0  0  0999 V2000
    1.1531   -3.9899    0.0000 C   0  0  0  0  0  0  0  0  0  0  0  0
    0.0000   -3.3349    0.0000 O   0  0  0  0  0  0  0  0  0  0  0  0
    2.3063   -3.3349    0.0000 C   0  0  0  0  0  0  0  0  0  0  0  0
    2.3063   -2.0019    0.0000 C   0  0  0  0  0  0  0  0  0  0  0  0
    3.4594   -3.9899    0.0000 C   0  0  0  0  0  0  0  0  0  0  0  0
    3.4594   -1.3330    0.0000 C   0  0  0  0  0  0  0  0  0  0  0  0
    4.6126   -3.3349    0.0000 C   0  0  0  0  0  0  0  0  0  0  0  0
    4.6126   -2.0019    0.0000 C   0  0  0  0  0  0  0  0  0  0  0  0
    3.4594   -0.0000    0.0000 Br  0  0  0  0  0  0  0  0  0  0  0  0
  1  2  2  0  0  0  0 
  1  3  1  0  0  0  0 
  3  4  2  0  0  0  0 
  3  5  1  0  0  0  0 
  4  6  1  0  0  0  0 
  5  7  2  0  0  0  0 
  6  8  2  0  0  0  0 
  6  9  1  0  0  0  0 
  7  8  1  0  0  0  0 
M  END
> <Name>
Benzaldehyde, m-bromo- (6CI,7CI,8CI)

> <Source>
DSSTox2DMolFile

> <Tox>
3.506

> <CAS>
3132-99-8

$$$$

  CDK

  9  9  0  0  0  0  0  0  0  0999 V2000
    0.8901   -1.0867   -0.0015 O   0  0  0  0  0  0  0  0  0  0  0  0
    0.4722    0.1824   -0.0004 C   0  0  0  0  0  0  0  0  0  0  0  0
    2.2465   -1.0035    0.0002 C   0  0  0  0  0  0  0  0  0  0  0  0
   -0.9874    0.3812   -0.0023 C   0  0  0  0  0  0  0  0  0  0  0  0
    1.4655    1.0859    0.0020 C   0  0  0  0  0  0  0  0  0  0  0  0
    2.6500    0.3114    0.0025 C   0  0  0  0  0  0  0  0  0  0  0  0
   -1.4976    1.5034   -0.0026 O   0  0  0  0  0  0  0  0  0  0  0  0
   -1.8788   -0.8578   -0.0049 C   0  0  0  0  0  0  0  0  0  0  0  0
   -3.3607   -0.5164    0.0071 C   0  0  0  0  0  0  0  0  0  0  0  0
  1  2  1  0  0  0  0 
  1  3  1  0  0  0  0 
  4  2  1  0  0  0  0 
  2  5  2  0  0  0  0 
  6  3  2  0  0  0  0 
  7  4  2  0  0  0  0 
  8  4  1  0  0  0  0 
  5  6  1  0  0  0  0 
  8  9  1  0  0  0  0 
M  END
> <Name>
1-(furan-2-yl)propan-1-one

> <Source>
Chemidplus3DMolFile

> <Tox>
2.230

> <CAS>
3194-15-8

$$$$

  CDK

  8  7  0  0  0  0  0  0  0  0999 V2000
    0.0000    1.0280    0.0000 C   0  0  0  0  0  0  0  0  0  0  0  0
    0.8738    1.4906    0.0000 C   0  0  0  0  0  0  0  0  0  0  0  0
    1.7990    1.0280    0.0000 C   0  0  0  0  0  0  0  0  0  0  0  0
    2.6728    1.4906    0.0000 C   0  0  0  0  0  0  0  0  0  0  0  0
    1.7990    0.0000    0.0000 Br  0  0  0  0  0  0  0  0  0  0  0  0
    3.4952    1.0280    0.0000 O   0  0  0  0  0  0  0  0  0  0  0  0
    2.6728    2.5186    0.0000 O   0  0  0  0  0  0  0  0  0  0  0  0
    4.3690    1.4906    0.0000 C   0  0  0  0  0  0  0  0  0  0  0  0
  1  2  1  0  0  0  0 
  2  3  1  0  0  0  0 
  3  4  1  0  0  0  0 
  3  5  1  0  0  0  0 
  4  6  1  0  0  0  0 
  4  7  2  0  0  0  0 
  6  8  1  0  0  0  0 
M  END
> <Name>
Butanoic acid, 2-bromo-, methyl ester

> <Source>
NIST2DMolFile

> <Tox>
4.024

> <CAS>
3196-15-4

$$$$

  CDK

  7  7  0  0  0  0  0  0  0  0999 V2000
    5.2549    2.3395    0.8951 C   0  0  0  0  0  0  0  0  0  0  0  0
    4.4285    1.0724    0.8882 C   0  0  0  0  0  0  0  0  0  0  0  0
    2.9733    1.3523    0.8898 C   0  0  0  0  0  0  0  0  0  0  0  0
    2.2366    2.5138    0.8789 C   0  0  0  0  0  0  0  0  0  0  0  0
    2.1213    0.2540    0.9041 O   0  0  0  0  0  0  0  0  0  0  0  0
    0.8509    2.1223    0.8866 C   0  0  0  0  0  0  0  0  0  0  0  0
    0.8382    0.7502    0.9017 C   0  0  0  0  0  0  0  0  0  0  0  0
  1  2  1  0  0  0  0 
  2  3  1  0  0  0  0 
  4  3  2  0  0  0  0 
  3  5  1  0  0  0  0 
  6  4  1  0  0  0  0 
  5  7  1  0  0  0  0 
  7  6  2  0  0  0  0 
M  END
> <Name>
Furan, 2-ethyl-

> <Source>
NIST3DMolFile

> <Tox>
2.480

> <CAS>
3208-16-0

$$$$

  CDK

 11 11  0  0  0  0  0  0  0  0999 V2000
    3.9900   -2.3046    0.0000 N   0  0  0  0  0  0  0  0  0  0  0  0
    4.6557   -1.1500    0.0000 O   0  0  0  0  0  0  0  0  0  0  0  0
    4.6557   -3.4545    0.0000 O   0  0  0  0  0  0  0  0  0  0  0  0
    2.6584   -2.3046    0.0000 C   0  0  0  0  0  0  0  0  0  0  0  0
    1.9973   -3.4545    0.0000 C   0  0  0  0  0  0  0  0  0  0  0  0
    1.9973   -1.1500    0.0000 C   0  0  0  0  0  0  0  0  0  0  0  0
    0.6658   -3.4545    0.0000 C   0  0  0  0  0  0  0  0  0  0  0  0
    0.6658   -1.1500    0.0000 C   0  0  0  0  0  0  0  0  0  0  0  0
    2.6584   -0.0000    0.0000 Cl  0  0  0  0  0  0  0  0  0  0  0  0
    0.0000   -2.3046    0.0000 C   0  0  0  0  0  0  0  0  0  0  0  0
    0.0000   -0.0000    0.0000 Cl  0  0  0  0  0  0  0  0  0  0  0  0
  1  2  2  0  0  0  0 
  1  3  1  0  0  0  0 
  1  4  1  0  0  0  0 
  4  5  2  0  0  0  0 
  4  6  1  0  0  0  0 
  5  7  1  0  0  0  0 
  8  6  2  0  0  0  0 
  6  9  1  0  0  0  0 
  7 10  2  0  0  0  0 
 10  8  1  0  0  0  0 
  8 11  1  0  0  0  0 
M  CHG  1   1   1
M  CHG  1   3  -1
M  END
> <Name>
Benzene, 1,2-dichloro-3-nitro-

> <Source>
DSSTox2DMolFile

> <Tox>
4.070

> <CAS>
3209-22-1

$$$$

  CDK

 10 10  0  0  0  0  0  0  0  0999 V2000
    0.0000    0.0000    0.0000 O   0  0  0  0  0  0  0  0  0  0  0  0
   -0.6600    1.1200   -0.1600 C   0  0  0  0  0  0  0  0  0  0  0  0
   -2.0400    1.1200   -0.4200 C   0  0  0  0  0  0  0  0  0  0  0  0
    0.0200    2.3600   -0.0800 C   0  0  0  0  0  0  0  0  0  0  0  0
   -2.9000   -0.3800   -0.5000 Cl  0  0  0  0  0  0  0  0  0  0  0  0
   -2.7400    2.3200   -0.6000 C   0  0  0  0  0  0  0  0  0  0  0  0
   -0.6800    3.5600   -0.2600 C   0  0  0  0  0  0  0  0  0  0  0  0
    1.7200    2.4200    0.2200 Cl  0  0  0  0  0  0  0  0  0  0  0  0
   -2.0600    3.5400   -0.5200 C   0  0  0  0  0  0  0  0  0  0  0  0
   -3.0000    5.1600   -0.7600 Br  0  0  0  0  0  0  0  0  0  0  0  0
  1  2  1  0  0  0  0 
  2  3  2  0  0  0  0 
  2  4  1  0  0  0  0 
  3  5  1  0  0  0  0 
  3  6  1  0  0  0  0 
  7  4  2  0  0  0  0 
  4  8  1  0  0  0  0 
  6  9  2  0  0  0  0 
  9  7  1  0  0  0  0 
  9 10  1  0  0  0  0 
M  END
> <Name>
Phenol, 4-bromo-2,6-dichloro- (8CI)(9CI)

> <Source>
NIH3DMolFile

> <Tox>
4.780

> <CAS>
3217-15-0

$$$$

  CDK

 14 15  0  0  0  0  0  0  0  0999 V2000
    0.6705    2.1341    1.2435 C   0  0  0  0  0  0  0  0  0  0  0  0
    0.0000    1.1302    1.1545 O   0  0  0  0  0  0  0  0  0  0  0  0
    2.1535    2.1370    1.2831 C   0  0  0  0  0  0  0  0  0  0  0  0
    2.8186    3.3566    1.4327 C   0  0  0  0  0  0  0  0  0  0  0  0
    2.8929    0.9592    1.1730 C   0  0  0  0  0  0  0  0  0  0  0  0
    4.2051    3.3988    1.4691 C   0  0  0  0  0  0  0  0  0  0  0  0
    4.2818    0.9978    1.2127 C   0  0  0  0  0  0  0  0  0  0  0  0
    4.9464    2.2178    1.3596 C   0  0  0  0  0  0  0  0  0  0  0  0
    6.4141    2.2614    1.4000 C   0  0  0  0  0  0  0  0  0  0  0  0
    7.1227    1.3644    2.2045 C   0  0  0  0  0  0  0  0  0  0  0  0
    7.1104    3.1991    0.6333 C   0  0  0  0  0  0  0  0  0  0  0  0
    8.5115    1.4097    2.2394 C   0  0  0  0  0  0  0  0  0  0  0  0
    8.4994    3.2358    0.6693 C   0  0  0  0  0  0  0  0  0  0  0  0
    9.2013    2.3430    1.4724 C   0  0  0  0  0  0  0  0  0  0  0  0
  1  2  2  0  0  0  0 
  1  3  1  0  0  0  0 
  3  4  2  0  0  0  0 
  5  3  1  0  0  0  0 
  4  6  1  0  0  0  0 
  7  5  2  0  0  0  0 
  6  8  2  0  0  0  0 
  8  7  1  0  0  0  0 
  8  9  1  0  0  0  0 
 10  9  2  0  0  0  0 
  9 11  1  0  0  0  0 
 12 10  1  0  0  0  0 
 11 13  2  0  0  0  0 
 14 12  2  0  0  0  0 
 13 14  1  0  0  0  0 
M  END
> <Name>
(1,1'-Biphenyl)-4-carboxaldehyde (9CI)

> <Source>
NIST3DMolFile

> <Tox>
4.120

> <CAS>
3218-36-8

$$$$

  CDK

 11 11  0  0  0  0  0  0  0  0999 V2000
    1.4363   -0.7554    0.0289 O   0  0  0  0  0  0  0  0  0  0  0  0
    1.0490    0.5467    0.0036 C   0  0  0  0  0  0  0  0  0  0  0  0
    2.7952   -0.7571    0.0173 C   0  0  0  0  0  0  0  0  0  0  0  0
    2.1457    1.3765   -0.0238 C   0  0  0  0  0  0  0  0  0  0  0  0
   -0.3128    0.9269    0.0048 C   0  0  0  0  0  0  0  0  0  0  0  0
    3.2797    0.5298   -0.0148 C   0  0  0  0  0  0  0  0  0  0  0  0
   -1.4253    0.1088    0.0085 C   0  0  0  0  0  0  0  0  0  0  0  0
   -2.7373    0.6718    0.0042 C   0  0  0  0  0  0  0  0  0  0  0  0
   -1.2727   -1.3104   -0.0078 C   0  0  0  0  0  0  0  0  0  0  0  0
   -3.8048    1.1272    0.0011 N   0  0  0  0  0  0  0  0  0  0  0  0
   -1.1528   -2.4647   -0.0219 N   0  0  0  0  0  0  0  0  0  0  0  0
  1  2  1  0  0  0  0 
  1  3  1  0  0  0  0 
  2  4  2  0  0  0  0 
  2  5  1  0  0  0  0 
  6  3  2  0  0  0  0 
  4  6  1  0  0  0  0 
  5  7  2  0  0  0  0 
  7  8  1  0  0  0  0 
  7  9  1  0  0  0  0 
 10  8  3  0  0  0  0 
 11  9  3  0  0  0  0 
M  END
> <Name>
2-(furan-2-ylmethylidene)propanedinitrile

> <Source>
Chemidplus3DMolFile

> <Tox>
3.940

> <CAS>
3237-22-7

$$$$

  CDK

  8  7  0  0  0  0  0  0  0  0999 V2000
    3.3034    2.5301    1.0978 C   0  0  0  0  0  0  0  0  0  0  0  0
    3.6321    3.9818    1.4046 C   0  0  0  0  0  0  0  0  0  0  0  0
    1.9119    2.1068    1.4452 C   0  0  0  0  0  0  0  0  0  0  0  0
    5.0794    4.2779    1.0579 C   0  0  0  0  0  0  0  0  0  0  0  0
    1.5966    0.6967    1.0800 C   0  0  0  0  0  0  0  0  0  0  0  0
    1.0021    2.8850    2.0301 C   0  0  0  0  0  0  0  0  0  0  0  0
    6.1044    3.8606    2.0783 C   0  0  0  0  0  0  0  0  0  0  0  0
    5.3904    4.8248    0.0173 O   0  0  0  0  0  0  0  0  0  0  0  0
  1  2  1  0  0  0  0 
  1  3  1  0  0  0  0 
  2  4  1  0  0  0  0 
  3  5  1  0  0  0  0 
  3  6  2  0  0  0  0 
  4  7  1  0  0  0  0 
  4  8  2  0  0  0  0 
M  END
> <Name>
5-Hexen-2-one, 5-methyl-

> <Source>
NIST3DMolFile

> <Tox>
2.125

> <CAS>
3240-09-3

$$$$

  CDK

  5  4  0  0  0  0  0  0  0  0999 V2000
    0.0000   -0.0000    0.0000 N   0  0  0  0  0  0  0  0  0  0  0  0
    0.6633   -1.1503    0.0000 C   0  0  0  0  0  0  0  0  0  0  0  0
    1.3300   -2.3041    0.0000 C   0  0  0  0  0  0  0  0  0  0  0  0
    2.6600   -2.3041    0.0000 Br  0  0  0  0  0  0  0  0  0  0  0  0
    0.6633   -3.4545    0.0000 Br  0  0  0  0  0  0  0  0  0  0  0  0
  1  2  3  0  0  0  0 
  2  3  1  0  0  0  0 
  3  4  1  0  0  0  0 
  3  5  1  0  0  0  0 
M  END
> <Name>
Acetonitrile, dibromo-

> <Source>
DSSTox2DMolFile

> <Tox>
5.398

> <CAS>
3252-43-5

$$$$

  CDK

 10 10  0  0  0  0  0  0  0  0999 V2000
    3.9471    1.7205    0.0000 C   0  0  0  0  0  0  0  0  0  0  0  0
    4.4531    0.8603    0.0000 C   0  0  0  0  0  0  0  0  0  0  0  0
    2.9856    1.7205    0.0000 C   0  0  0  0  0  0  0  0  0  0  0  0
    3.9471    0.0000    0.0000 C   0  0  0  0  0  0  0  0  0  0  0  0
    5.5664    0.8603    0.0000 C   0  0  0  0  0  0  0  0  0  0  0  0
    2.4796    0.8603    0.0000 C   0  0  0  0  0  0  0  0  0  0  0  0
    2.9856    0.0000    0.0000 C   0  0  0  0  0  0  0  0  0  0  0  0
    1.5181    0.8603    0.0000 C   0  0  0  0  0  0  0  0  0  0  0  0
    1.0121    0.0000    0.0000 C   0  0  0  0  0  0  0  0  0  0  0  0
    0.0000    0.0000    0.0000 N   0  0  0  0  0  0  0  0  0  0  0  0
  2  1  2  0  0  0  0 
  1  3  1  0  0  0  0 
  4  2  1  0  0  0  0 
  2  5  1  0  0  0  0 
  3  6  2  0  0  0  0 
  7  4  2  0  0  0  0 
  6  7  1  0  0  0  0 
  6  8  1  0  0  0  0 
  8  9  1  0  0  0  0 
  9 10  1  0  0  0  0 
M  END
> <Name>
p-Methylphenethylamine

> <Source>
NIST2DMolFile

> <Tox>
2.960

> <CAS>
3261-62-9

$$$$

  CDK

 15 15  0  0  0  0  0  0  0  0999 V2000
    6.3000    2.4249    0.0000 O   0  0  0  0  0  0  0  0  0  0  0  0
    4.9000    2.4249    0.0000 C   0  0  0  0  0  0  0  0  0  0  0  0
    4.2000    1.2124    0.0000 C   0  0  0  0  0  0  0  0  0  0  0  0
    4.2000    3.6373    0.0000 C   0  0  0  0  0  0  0  0  0  0  0  0
    4.9000    0.0000    0.0000 O   0  0  0  0  0  0  0  0  0  0  0  0
    2.8000    1.2124    0.0000 C   0  0  0  0  0  0  0  0  0  0  0  0
    2.8000    3.6373    0.0000 C   0  0  0  0  0  0  0  0  0  0  0  0
    4.9000    4.8497    0.0000 N   0  0  0  0  0  0  0  0  0  0  0  0
    2.1000    0.0000    0.0000 O   0  0  0  0  0  0  0  0  0  0  0  0
    2.1000    2.4249    0.0000 C   0  0  0  0  0  0  0  0  0  0  0  0
    6.3000    4.8497    0.0000 O   0  0  0  0  0  0  0  0  0  0  0  0
    4.2000    6.0622    0.0000 O   0  0  0  0  0  0  0  0  0  0  0  0
    0.7000    2.4249    0.0000 N   0  0  0  0  0  0  0  0  0  0  0  0
    0.0000    1.2124    0.0000 O   0  0  0  0  0  0  0  0  0  0  0  0
    0.0000    3.6373    0.0000 O   0  0  0  0  0  0  0  0  0  0  0  0
  1  2  1  0  0  0  0 
  2  3  1  0  0  0  0 
  2  4  2  0  0  0  0 
  3  5  1  0  0  0  0 
  3  6  2  0  0  0  0 
  7  4  1  0  0  0  0 
  4  8  1  0  0  0  0 
  6  9  1  0  0  0  0 
  6 10  1  0  0  0  0 
 10  7  2  0  0  0  0 
  8 11  2  0  0  0  0 
  8 12  1  0  0  0  0 
 10 13  1  0  0  0  0 
 13 14  2  0  0  0  0 
 13 15  1  0  0  0  0 
M  CHG  1   8   1
M  CHG  1  12  -1
M  CHG  1  13   1
M  CHG  1  15  -1
M  END
> <Name>
Pyrogallol,4,6-dinitro- (7CI,8CI)

> <Source>
Name2DMolFile

> <Tox>
4.180

> <CAS>
3264-71-9

$$$$

  CDK

 11 11  0  0  0  0  0  0  0  0999 V2000
    2.4746    0.8080    0.0000 C   0  0  0  0  0  0  0  0  0  0  0  0
    1.5151    0.8080    0.0000 C   0  0  0  0  0  0  0  0  0  0  0  0
    2.9796    1.7171    0.0000 C   0  0  0  0  0  0  0  0  0  0  0  0
    1.0100    1.7171    0.0000 C   0  0  0  0  0  0  0  0  0  0  0  0
    1.0100    0.0000    0.0000 O   0  0  0  0  0  0  0  0  0  0  0  0
    2.4746    2.5756    0.0000 C   0  0  0  0  0  0  0  0  0  0  0  0
    3.9897    1.7171    0.0000 N   0  0  0  0  0  0  0  0  0  0  0  0
    1.5151    2.5756    0.0000 C   0  0  0  0  0  0  0  0  0  0  0  0
    0.0000    1.7171    0.0000 O   0  0  0  0  0  0  0  0  0  0  0  0
    4.4947    0.8080    0.0000 O   0  0  0  0  0  0  0  0  0  0  0  0
    4.4947    2.5756    0.0000 O   0  0  0  0  0  0  0  0  0  0  0  0
  2  1  2  0  0  0  0 
  1  3  1  0  0  0  0 
  4  2  1  0  0  0  0 
  2  5  1  0  0  0  0 
  3  6  2  0  0  0  0 
  3  7  1  0  0  0  0 
  8  4  2  0  0  0  0 
  4  9  1  0  0  0  0 
  6  8  1  0  0  0  0 
  7 10  2  0  0  0  0 
  7 11  2  0  0  0  0 
M  END
> <Name>
4-Nitropyrocatechol

> <Source>
NIST2DMolFile

> <Tox>
4.170

> <CAS>
3316-09-4

$$$$

  CDK

 11 11  0  0  0  0  0  0  0  0999 V2000
    6.0094    2.6898    2.2870 C   0  0  0  0  0  0  0  0  0  0  0  0
    5.3302    1.7866    1.2649 C   0  0  0  0  0  0  0  0  0  0  0  0
    7.5218    2.7033    2.1313 C   0  0  0  0  0  0  0  0  0  0  0  0
    3.8493    1.7771    1.4639 C   0  0  0  0  0  0  0  0  0  0  0  0
    7.9615    3.5690    0.9517 C   0  0  0  0  0  0  0  0  0  0  0  0
    3.0551    2.7652    0.8806 C   0  0  0  0  0  0  0  0  0  0  0  0
    3.2490    0.7836    2.2395 C   0  0  0  0  0  0  0  0  0  0  0  0
    9.3701    3.5452    0.9089 O   0  0  0  0  0  0  0  0  0  0  0  0
    1.6773    2.7587    1.0670 C   0  0  0  0  0  0  0  0  0  0  0  0
    1.8718    0.7810    2.4266 C   0  0  0  0  0  0  0  0  0  0  0  0
    1.0845    1.7668    1.8409 C   0  0  0  0  0  0  0  0  0  0  0  0
  1  2  1  0  0  0  0 
  1  3  1  0  0  0  0 
  2  4  1  0  0  0  0 
  3  5  1  0  0  0  0 
  6  4  2  0  0  0  0 
  4  7  1  0  0  0  0 
  5  8  1  0  0  0  0 
  9  6  1  0  0  0  0 
  7 10  2  0  0  0  0 
 11  9  2  0  0  0  0 
 10 11  1  0  0  0  0 
M  END
> <Name>
1-Butanol, 4-phenyl- (8CI)

> <Source>
NIST3DMolFile

> <Tox>
3.120

> <CAS>
3360-41-6

$$$$

  CDK

  7  6  0  0  0  0  0  0  0  0999 V2000
    0.0000    0.0000    0.0000 Br  0  0  0  0  0  0  0  0  0  0  0  0
    0.8537    0.5022    0.0000 C   0  0  0  0  0  0  0  0  0  0  0  0
    1.7073    0.0000    0.0000 C   0  0  0  0  0  0  0  0  0  0  0  0
    2.6112    0.5022    0.0000 C   0  0  0  0  0  0  0  0  0  0  0  0
    3.4649    0.0000    0.0000 O   0  0  0  0  0  0  0  0  0  0  0  0
    2.6112    1.5065    0.0000 O   0  0  0  0  0  0  0  0  0  0  0  0
    4.3186    0.5022    0.0000 C   0  0  0  0  0  0  0  0  0  0  0  0
  1  2  1  0  0  0  0 
  2  3  1  0  0  0  0 
  3  4  1  0  0  0  0 
  4  5  1  0  0  0  0 
  4  6  2  0  0  0  0 
  5  7  1  0  0  0  0 
M  END
> <Name>
Propionic acid, 3-bromo-, methyl ester (8CI)

> <Source>
NIST2DMolFile

> <Tox>
4.027

> <CAS>
3395-91-3

$$$$

  CDK

 11 11  0  0  0  0  0  0  0  0999 V2000
    0.0500    2.5996    0.0000 O   0  0  0  0  0  0  0  0  0  0  0  0
    0.4999    1.7497    0.0000 N   0  0  0  0  0  0  0  0  0  0  0  0
    0.0000    0.8999    0.0000 O   0  0  0  0  0  0  0  0  0  0  0  0
    1.5498    1.7497    0.0000 C   0  0  0  0  0  0  0  0  0  0  0  0
    2.0497    2.5996    0.0000 C   0  0  0  0  0  0  0  0  0  0  0  0
    2.0497    0.8999    0.0000 C   0  0  0  0  0  0  0  0  0  0  0  0
    1.5498    3.4995    0.0000 Br  0  0  0  0  0  0  0  0  0  0  0  0
    3.0495    2.5996    0.0000 C   0  0  0  0  0  0  0  0  0  0  0  0
    3.0495    0.8999    0.0000 C   0  0  0  0  0  0  0  0  0  0  0  0
    3.5495    1.7497    0.0000 C   0  0  0  0  0  0  0  0  0  0  0  0
    3.5495    0.0000    0.0000 Br  0  0  0  0  0  0  0  0  0  0  0  0
  1  2  2  0  0  0  0 
  2  3  2  0  0  0  0 
  2  4  1  0  0  0  0 
  5  4  2  0  0  0  0 
  4  6  1  0  0  0  0 
  5  7  1  0  0  0  0 
  8  5  1  0  0  0  0 
  6  9  2  0  0  0  0 
 10  8  2  0  0  0  0 
  9 10  1  0  0  0  0 
  9 11  1  0  0  0  0 
M  END
> <Name>
1,4-Dibromo-2-nitrobenzene

> <Source>
NIST2DMolFile

> <Tox>
4.370

> <CAS>
3460-18-2

$$$$

  CDK

 11 11  0  0  0  0  0  0  0  0999 V2000
    0.0000   -2.3039    0.0000 N   0  0  0  0  0  0  0  0  0  0  0  0
    1.3317   -2.3039    0.0000 C   0  0  0  0  0  0  0  0  0  0  0  0
    1.9952   -1.1519    0.0000 C   0  0  0  0  0  0  0  0  0  0  0  0
    1.9952   -3.4558    0.0000 C   0  0  0  0  0  0  0  0  0  0  0  0
    1.3317   -0.0000    0.0000 Cl  0  0  0  0  0  0  0  0  0  0  0  0
    3.3268   -1.1519    0.0000 C   0  0  0  0  0  0  0  0  0  0  0  0
    3.3268   -3.4558    0.0000 C   0  0  0  0  0  0  0  0  0  0  0  0
    1.3317   -4.6078    0.0000 Cl  0  0  0  0  0  0  0  0  0  0  0  0
    3.9904   -0.0000    0.0000 Cl  0  0  0  0  0  0  0  0  0  0  0  0
    3.9904   -2.3039    0.0000 C   0  0  0  0  0  0  0  0  0  0  0  0
    3.9904   -4.6078    0.0000 Cl  0  0  0  0  0  0  0  0  0  0  0  0
  1  2  1  0  0  0  0 
  2  3  2  0  0  0  0 
  2  4  1  0  0  0  0 
  3  5  1  0  0  0  0 
  3  6  1  0  0  0  0 
  7  4  2  0  0  0  0 
  4  8  1  0  0  0  0 
  6  9  1  0  0  0  0 
  6 10  2  0  0  0  0 
 10  7  1  0  0  0  0 
  7 11  1  0  0  0  0 
M  END
> <Name>
Benzenamine, 2,3,5,6-tetrachloro- (9CI)

> <Source>
DSSTox2DMolFile

> <Tox>
4.760

> <CAS>
3481-20-7

$$$$

  CDK

 11 11  0  0  0  0  0  0  0  0999 V2000
    0.0006    2.9940   -0.0006 Br  0  0  0  0  0  0  0  0  0  0  0  0
    0.0003    1.1035    0.0004 C   0  0  0  0  0  0  0  0  0  0  0  0
   -1.2025    0.4057    0.0004 C   0  0  0  0  0  0  0  0  0  0  0  0
    1.2027    0.4053    0.0002 C   0  0  0  0  0  0  0  0  0  0  0  0
   -2.3839    1.0357    0.0002 F   0  0  0  0  0  0  0  0  0  0  0  0
   -1.1490   -0.9788    0.0000 C   0  0  0  0  0  0  0  0  0  0  0  0
    2.3843    1.0348   -0.0001 F   0  0  0  0  0  0  0  0  0  0  0  0
    1.1485   -0.9793    0.0002 C   0  0  0  0  0  0  0  0  0  0  0  0
   -2.3027   -1.6642   -0.0005 F   0  0  0  0  0  0  0  0  0  0  0  0
   -0.0004   -1.6917    0.0000 N   0  0  0  0  0  0  0  0  0  0  0  0
    2.3021   -1.6649   -0.0002 F   0  0  0  0  0  0  0  0  0  0  0  0
  1  2  1  0  0  0  0 
  2  3  2  0  0  0  0 
  2  4  1  0  0  0  0 
  5  3  1  0  0  0  0 
  3  6  1  0  0  0  0 
  7  4  1  0  0  0  0 
  4  8  2  0  0  0  0 
  9  6  1  0  0  0  0 
 10  6  2  0  0  0  0 
 11  8  1  0  0  0  0 
 10  8  1  0  0  0  0 
M  END
> <Name>
4-bromanyl-2,3,5,6-tetrakis(fluoranyl)pyridine

> <Source>
Chemidplus3DMolFile

> <Tox>
2.870

> <CAS>
3511-90-8

$$$$

  CDK

 14 14  0  0  0  0  0  0  0  0999 V2000
    0.0498    3.4394    0.0000 O   0  0  0  0  0  0  0  0  0  0  0  0
    0.4985    2.5920    0.0000 N   0  0  0  0  0  0  0  0  0  0  0  0
    0.0000    1.6948    0.0000 O   0  0  0  0  0  0  0  0  0  0  0  0
    1.5453    2.5920    0.0000 C   0  0  0  0  0  0  0  0  0  0  0  0
    2.0437    1.6948    0.0000 C   0  0  0  0  0  0  0  0  0  0  0  0
    2.0437    3.4394    0.0000 C   0  0  0  0  0  0  0  0  0  0  0  0
    3.0407    1.6948    0.0000 C   0  0  0  0  0  0  0  0  0  0  0  0
    1.5453    4.2868    0.0000 N   0  0  0  0  0  0  0  0  0  0  0  0
    3.0407    3.4394    0.0000 C   0  0  0  0  0  0  0  0  0  0  0  0
    3.4893    0.8474    0.0000 N   0  0  0  0  0  0  0  0  0  0  0  0
    3.5391    2.5920    0.0000 C   0  0  0  0  0  0  0  0  0  0  0  0
    3.5391    4.2868    0.0000 Cl  0  0  0  0  0  0  0  0  0  0  0  0
    2.9908    0.0000    0.0000 O   0  0  0  0  0  0  0  0  0  0  0  0
    4.5361    0.8474    0.0000 O   0  0  0  0  0  0  0  0  0  0  0  0
  1  2  2  0  0  0  0 
  2  3  2  0  0  0  0 
  2  4  1  0  0  0  0 
  4  5  2  0  0  0  0 
  6  4  1  0  0  0  0 
  5  7  1  0  0  0  0 
  6  8  1  0  0  0  0 
  9  6  2  0  0  0  0 
  7 10  1  0  0  0  0 
  7 11  2  0  0  0  0 
 11  9  1  0  0  0  0 
  9 12  1  0  0  0  0 
 10 13  2  0  0  0  0 
 10 14  2  0  0  0  0 
M  END
> <Name>
Benzenamine, 2-chloro-4,6-dinitro-

> <Source>
NIST2DMolFile

> <Tox>
4.120

> <CAS>
3531-19-9

$$$$

  CDK

  7  6  0  0  0  0  0  0  0  0999 V2000
    0.9039    0.5022    0.0000 C   0  0  0  0  0  0  0  0  0  0  0  0
    0.0000    0.0000    0.0000 C   0  0  0  0  0  0  0  0  0  0  0  0
    1.7576    0.0000    0.0000 C   0  0  0  0  0  0  0  0  0  0  0  0
    2.6112    0.5022    0.0000 C   0  0  0  0  0  0  0  0  0  0  0  0
    2.6112    1.5065    0.0000 O   0  0  0  0  0  0  0  0  0  0  0  0
    3.4649    0.0000    0.0000 N   0  0  0  0  0  0  0  0  0  0  0  0
    4.3186    0.5022    0.0000 N   0  0  0  0  0  0  0  0  0  0  0  0
  1  2  1  0  0  0  0 
  1  3  1  0  0  0  0 
  3  4  1  0  0  0  0 
  5  4  2  0  0  0  0 
  4  6  1  0  0  0  0 
  6  7  1  0  0  0  0 
M  END
> <Name>
Butyrohydrazide

> <Source>
NIST2DMolFile

> <Tox>
2.028

> <CAS>
3538-65-6

$$$$

  CDK

 10 10  0  0  0  0  0  0  0  0999 V2000
    3.5138    0.9166    0.0000 C   0  0  0  0  0  0  0  0  0  0  0  0
    2.5462    0.9166    0.0000 C   0  0  0  0  0  0  0  0  0  0  0  0
    4.0230    1.7314    0.0000 C   0  0  0  0  0  0  0  0  0  0  0  0
    2.0370    1.7314    0.0000 C   0  0  0  0  0  0  0  0  0  0  0  0
    3.5138    2.6480    0.0000 C   0  0  0  0  0  0  0  0  0  0  0  0
    5.0415    1.7314    0.0000 N   0  0  0  0  0  0  0  0  0  0  0  0
    2.5462    2.6480    0.0000 C   0  0  0  0  0  0  0  0  0  0  0  0
    1.0185    1.7314    0.0000 C   0  0  0  0  0  0  0  0  0  0  0  0
    0.5602    0.9166    0.0000 C   0  0  0  0  0  0  0  0  0  0  0  0
    0.0000    0.0000    0.0000 N   0  0  0  0  0  0  0  0  0  0  0  0
  2  1  2  0  0  0  0 
  1  3  1  0  0  0  0 
  4  2  1  0  0  0  0 
  3  5  2  0  0  0  0 
  3  6  1  0  0  0  0 
  7  4  2  0  0  0  0 
  4  8  1  0  0  0  0 
  5  7  1  0  0  0  0 
  8  9  1  0  0  0  0 
  9 10  3  0  0  0  0 
M  END
> <Name>
4-Aminophenylacetonitrile

> <Source>
NIST2DMolFile

> <Tox>
2.240

> <CAS>
3544-25-0

$$$$

  CDK

 16 17  0  0  0  0  0  0  0  0999 V2000
    0.0000    0.5045    0.0000 C   0  0  0  0  0  0  0  0  0  0  0  0
    0.0000    1.5136    0.0000 C   0  0  0  0  0  0  0  0  0  0  0  0
    0.9082    0.0000    0.0000 C   0  0  0  0  0  0  0  0  0  0  0  0
    0.9082    2.0182    0.0000 C   0  0  0  0  0  0  0  0  0  0  0  0
    1.7659    0.5045    0.0000 C   0  0  0  0  0  0  0  0  0  0  0  0
    1.7659    1.5136    0.0000 C   0  0  0  0  0  0  0  0  0  0  0  0
    2.6740    2.0182    0.0000 C   0  0  0  0  0  0  0  0  0  0  0  0
    3.4813    1.5136    0.0000 C   0  0  0  0  0  0  0  0  0  0  0  0
    2.6740    2.9768    0.0000 N   0  0  0  0  0  0  0  0  0  0  0  0
    3.4813    0.5045    0.0000 C   0  0  0  0  0  0  0  0  0  0  0  0
    4.3895    2.0182    0.0000 C   0  0  0  0  0  0  0  0  0  0  0  0
    3.4813    3.4813    0.0000 C   0  0  0  0  0  0  0  0  0  0  0  0
    4.3895    0.0000    0.0000 C   0  0  0  0  0  0  0  0  0  0  0  0
    5.2472    1.5136    0.0000 C   0  0  0  0  0  0  0  0  0  0  0  0
    4.2886    3.9354    0.0000 S   0  0  0  0  0  0  0  0  0  0  0  0
    5.2472    0.5045    0.0000 C   0  0  0  0  0  0  0  0  0  0  0  0
  1  2  2  0  0  0  0 
  3  1  1  0  0  0  0 
  2  4  1  0  0  0  0 
  5  3  2  0  0  0  0 
  4  6  2  0  0  0  0 
  6  5  1  0  0  0  0 
  6  7  1  0  0  0  0 
  7  8  1  0  0  0  0 
  7  9  1  0  0  0  0 
 10  8  2  0  0  0  0 
  8 11  1  0  0  0  0 
  9 12  2  0  0  0  0 
 13 10  1  0  0  0  0 
 11 14  2  0  0  0  0 
 12 15  2  0  0  0  0 
 16 13  2  0  0  0  0 
 14 16  1  0  0  0  0 
M  END
> <Name>
Isothiocyanicacid, diphenylmethyl ester (6CI,7CI,8CI)

> <Source>
NIST2DMolFile

> <Tox>
6.051

> <CAS>
3550-21-8

$$$$

  CDK

 14 15  0  0  0  0  0  0  0  0999 V2000
    2.6278    2.5267    0.0000 C   0  0  0  0  0  0  0  0  0  0  0  0
    1.7182    3.0321    0.0000 C   0  0  0  0  0  0  0  0  0  0  0  0
    2.6278    1.5160    0.0000 C   0  0  0  0  0  0  0  0  0  0  0  0
    3.5880    2.5267    0.0000 C   0  0  0  0  0  0  0  0  0  0  0  0
    0.8591    2.5267    0.0000 C   0  0  0  0  0  0  0  0  0  0  0  0
    1.7182    1.0612    0.0000 C   0  0  0  0  0  0  0  0  0  0  0  0
    4.4470    3.0321    0.0000 C   0  0  0  0  0  0  0  0  0  0  0  0
    3.5880    1.5160    0.0000 C   0  0  0  0  0  0  0  0  0  0  0  0
    0.8591    1.5160    0.0000 C   0  0  0  0  0  0  0  0  0  0  0  0
    5.3061    2.5267    0.0000 C   0  0  0  0  0  0  0  0  0  0  0  0
    4.4470    1.0612    0.0000 C   0  0  0  0  0  0  0  0  0  0  0  0
    0.0000    1.0612    0.0000 C   0  0  0  0  0  0  0  0  0  0  0  0
    5.3061    1.5160    0.0000 C   0  0  0  0  0  0  0  0  0  0  0  0
    0.0000    0.0000    0.0000 O   0  0  0  0  0  0  0  0  0  0  0  0
  2  1  2  0  0  0  0 
  1  3  1  0  0  0  0 
  1  4  1  0  0  0  0 
  5  2  1  0  0  0  0 
  3  6  2  0  0  0  0 
  4  7  2  0  0  0  0 
  8  4  1  0  0  0  0 
  9  5  2  0  0  0  0 
  6  9  1  0  0  0  0 
  7 10  1  0  0  0  0 
 11  8  2  0  0  0  0 
  9 12  1  0  0  0  0 
 10 13  2  0  0  0  0 
 13 11  1  0  0  0  0 
 12 14  1  0  0  0  0 
M  END
> <Name>
p-Phenylbenzyl alcohol

> <Source>
NIST2DMolFile

> <Tox>
3.920

> <CAS>
3597-91-9

$$$$

  CDK

  9  8  0  0  0  0  0  0  0  0999 V2000
   -0.8150    0.8244   -0.4754 C   0  0  0  0  0  0  0  0  0  0  0  0
    0.0583   -0.2316    0.1549 C   0  0  0  0  0  0  0  0  0  0  0  0
   -0.6534    1.4017   -1.5313 O   0  0  0  0  0  0  0  0  0  0  0  0
   -1.9029    1.0885    0.2985 O   0  0  0  0  0  0  0  0  0  0  0  0
    1.3152   -0.5609   -0.5692 C   0  0  0  0  0  0  0  0  0  0  0  0
   -1.0459   -1.8380    0.0313 Br  0  0  0  0  0  0  0  0  0  0  0  0
   -2.8463    2.0588   -0.1657 C   0  0  0  0  0  0  0  0  0  0  0  0
    2.6834    0.5875    0.2254 Br  0  0  0  0  0  0  0  0  0  0  0  0
   -3.9334    2.1337    0.8884 C   0  0  0  0  0  0  0  0  0  0  0  0
  1  2  1  0  0  0  0 
  1  3  2  0  0  0  0 
  1  4  1  0  0  0  0 
  2  5  1  0  0  0  0 
  2  6  1  0  0  0  0 
  4  7  1  0  0  0  0 
  5  8  1  0  0  0  0 
  7  9  1  0  0  0  0 
M  END
> <Name>
Propionic acid, 2,3-dibromo-, ethyl ester (6CI,7CI,8CI)

> <Source>
DougDB3DMolFile

> <Tox>
5.208

> <CAS>
3674-13-3

$$$$

  CDK

 14 14  0  0  0  0  0  0  0  0999 V2000
    1.1543   -0.0000    0.0000 Cl  0  0  0  0  0  0  0  0  0  0  0  0
    2.3017   -0.6636    0.0000 C   0  0  0  0  0  0  0  0  0  0  0  0
    3.4561   -0.0000    0.0000 C   0  0  0  0  0  0  0  0  0  0  0  0
    2.3017   -1.9907    0.0000 C   0  0  0  0  0  0  0  0  0  0  0  0
    4.6104   -0.6636    0.0000 C   0  0  0  0  0  0  0  0  0  0  0  0
    3.4561   -2.6612    0.0000 C   0  0  0  0  0  0  0  0  0  0  0  0
    1.1543   -2.6612    0.0000 N   0  0  0  0  0  0  0  0  0  0  0  0
    5.7578   -0.0000    0.0000 Cl  0  0  0  0  0  0  0  0  0  0  0  0
    4.6104   -1.9907    0.0000 C   0  0  0  0  0  0  0  0  0  0  0  0
    0.0000   -1.9907    0.0000 O   0  0  0  0  0  0  0  0  0  0  0  0
    1.1543   -3.9883    0.0000 O   0  0  0  0  0  0  0  0  0  0  0  0
    5.7578   -2.6612    0.0000 N   0  0  0  0  0  0  0  0  0  0  0  0
    6.9122   -1.9907    0.0000 O   0  0  0  0  0  0  0  0  0  0  0  0
    5.7578   -3.9883    0.0000 O   0  0  0  0  0  0  0  0  0  0  0  0
  1  2  1  0  0  0  0 
  2  3  2  0  0  0  0 
  2  4  1  0  0  0  0 
  3  5  1  0  0  0  0 
  6  4  2  0  0  0  0 
  4  7  1  0  0  0  0 
  5  8  1  0  0  0  0 
  5  9  2  0  0  0  0 
  9  6  1  0  0  0  0 
  7 10  1  0  0  0  0 
  7 11  2  0  0  0  0 
  9 12  1  0  0  0  0 
 12 13  1  0  0  0  0 
 12 14  2  0  0  0  0 
M  CHG  1   7   1
M  CHG  1  10  -1
M  CHG  1  12   1
M  CHG  1  13  -1
M  END
> <Name>
Benzene, 1,5-dichloro-2,4-dinitro-

> <Source>
DSSTox2DMolFile

> <Tox>
5.720

> <CAS>
3698-83-7

$$$$

  CDK

 11 11  0  0  0  0  0  0  0  0999 V2000
    3.4616    1.5272    0.0000 C   0  0  0  0  0  0  0  0  0  0  0  0
    3.4616    2.4944    0.0000 C   0  0  0  0  0  0  0  0  0  0  0  0
    2.5962    1.0181    0.0000 C   0  0  0  0  0  0  0  0  0  0  0  0
    4.3779    1.0181    0.0000 I   0  0  0  0  0  0  0  0  0  0  0  0
    2.5962    3.0034    0.0000 C   0  0  0  0  0  0  0  0  0  0  0  0
    1.7817    1.5272    0.0000 C   0  0  0  0  0  0  0  0  0  0  0  0
    1.7817    2.4944    0.0000 C   0  0  0  0  0  0  0  0  0  0  0  0
    2.5962    4.0215    0.0000 F   0  0  0  0  0  0  0  0  0  0  0  0
    0.8654    1.0181    0.0000 N   0  0  0  0  0  0  0  0  0  0  0  0
    0.0000    1.5272    0.0000 O   0  0  0  0  0  0  0  0  0  0  0  0
    0.8654    0.0000    0.0000 O   0  0  0  0  0  0  0  0  0  0  0  0
  2  1  2  0  0  0  0 
  1  3  1  0  0  0  0 
  1  4  1  0  0  0  0 
  5  2  1  0  0  0  0 
  3  6  2  0  0  0  0 
  7  5  2  0  0  0  0 
  5  8  1  0  0  0  0 
  6  7  1  0  0  0  0 
  6  9  1  0  0  0  0 
  9 10  2  0  0  0  0 
  9 11  2  0  0  0  0 
M  END
> <Name>
3-Nitro-5-fluoro-1-iodobenzene

> <Source>
NIST2DMolFile

> <Tox>
4.090

> <CAS>
3819-88-3

$$$$

  CDK

 11 10  0  0  0  0  0  0  0  0999 V2000
   -5.8864   -0.6926    0.4252 O   0  0  0  0  0  0  0  0  0  0  0  0
   -4.9084   -0.4008   -0.2523 C   0  0  0  0  0  0  0  0  0  0  0  0
   -3.6568    0.0892    0.3556 C   0  0  0  0  0  0  0  0  0  0  0  0
   -2.6219    0.3928   -0.4370 C   0  0  0  0  0  0  0  0  0  0  0  0
   -1.3073    0.9018    0.0814 C   0  0  0  0  0  0  0  0  0  0  0  0
   -0.1182    0.0381   -0.3511 C   0  0  0  0  0  0  0  0  0  0  0  0
    1.2295    0.5950    0.1184 C   0  0  0  0  0  0  0  0  0  0  0  0
    2.3847   -0.3140   -0.3100 C   0  0  0  0  0  0  0  0  0  0  0  0
    3.7270    0.2231    0.1917 C   0  0  0  0  0  0  0  0  0  0  0  0
    4.9154   -0.6624   -0.1891 C   0  0  0  0  0  0  0  0  0  0  0  0
    6.2425   -0.1703    0.3672 C   0  0  0  0  0  0  0  0  0  0  0  0
  1  2  2  0  0  0  0 
  3  2  1  0  0  0  0 
  4  3  2  0  0  0  0 
  5  4  1  0  0  0  0 
  6  5  1  0  0  0  0 
  7  6  1  0  0  0  0 
  8  7  1  0  0  0  0 
  8  9  1  0  0  0  0 
  9 10  1  0  0  0  0 
 10 11  1  0  0  0  0 
M  END
> <Name>
(E)-dec-2-enal

> <Source>
Chemidplus3DMolFile

> <Tox>
4.850

> <CAS>
3913-81-3

$$$$

  CDK

 15 15  0  0  0  0  0  0  0  0999 V2000
    1.4507    1.7008    0.0000 C   0  0  0  0  0  0  0  0  0  0  0  0
    2.0010    2.6013    0.0000 N   0  0  0  0  0  0  0  0  0  0  0  0
    0.5002    1.7008    0.0000 C   0  0  0  0  0  0  0  0  0  0  0  0
    1.9510    0.8504    0.0000 O   0  0  0  0  0  0  0  0  0  0  0  0
    3.0015    2.6013    0.0000 C   0  0  0  0  0  0  0  0  0  0  0  0
    0.0000    0.8504    0.0000 Br  0  0  0  0  0  0  0  0  0  0  0  0
    3.5017    1.7008    0.0000 C   0  0  0  0  0  0  0  0  0  0  0  0
    3.5017    3.4517    0.0000 C   0  0  0  0  0  0  0  0  0  0  0  0
    4.5022    1.7008    0.0000 C   0  0  0  0  0  0  0  0  0  0  0  0
    3.0015    4.3021    0.0000 O   0  0  0  0  0  0  0  0  0  0  0  0
    4.5022    3.4517    0.0000 C   0  0  0  0  0  0  0  0  0  0  0  0
    4.9525    0.8504    0.0000 N   0  0  0  0  0  0  0  0  0  0  0  0
    5.0025    2.6013    0.0000 C   0  0  0  0  0  0  0  0  0  0  0  0
    4.4522    0.0000    0.0000 O   0  0  0  0  0  0  0  0  0  0  0  0
    6.0030    0.8504    0.0000 O   0  0  0  0  0  0  0  0  0  0  0  0
  1  2  1  0  0  0  0 
  1  3  1  0  0  0  0 
  1  4  2  0  0  0  0 
  2  5  1  0  0  0  0 
  3  6  1  0  0  0  0 
  5  7  2  0  0  0  0 
  8  5  1  0  0  0  0 
  7  9  1  0  0  0  0 
  8 10  1  0  0  0  0 
 11  8  2  0  0  0  0 
  9 12  1  0  0  0  0 
  9 13  2  0  0  0  0 
 13 11  1  0  0  0  0 
 12 14  2  0  0  0  0 
 12 15  2  0  0  0  0 
M  END
> <Name>
Acetanilide, 2-bromo-2'-hydroxy-5'-nitro- (8CI)

> <Source>
NIST2DMolFile

> <Tox>
3.870

> <CAS>
3947-58-8

$$$$

  CDK

 11 11  0  0  0  0  0  0  0  0999 V2000
    1.0051    0.0000    0.0000 C   0  0  0  0  0  0  0  0  0  0  0  0
    1.0051    1.0051    0.0000 C   0  0  0  0  0  0  0  0  0  0  0  0
    1.0051    2.0101    0.0000 C   0  0  0  0  0  0  0  0  0  0  0  0
    0.0000    1.0051    0.0000 C   0  0  0  0  0  0  0  0  0  0  0  0
    2.0101    1.0051    0.0000 C   0  0  0  0  0  0  0  0  0  0  0  0
    2.5127    1.8594    0.0000 C   0  0  0  0  0  0  0  0  0  0  0  0
    2.5127    0.1508    0.0000 C   0  0  0  0  0  0  0  0  0  0  0  0
    3.5177    1.8594    0.0000 C   0  0  0  0  0  0  0  0  0  0  0  0
    3.5177    0.1508    0.0000 C   0  0  0  0  0  0  0  0  0  0  0  0
    4.0202    1.0051    0.0000 C   0  0  0  0  0  0  0  0  0  0  0  0
    5.0253    1.0051    0.0000 Br  0  0  0  0  0  0  0  0  0  0  0  0
  1  2  1  0  0  0  0 
  2  3  1  0  0  0  0 
  2  4  1  0  0  0  0 
  2  5  1  0  0  0  0 
  6  5  2  0  0  0  0 
  5  7  1  0  0  0  0 
  8  6  1  0  0  0  0 
  7  9  2  0  0  0  0 
 10  8  2  0  0  0  0 
  9 10  1  0  0  0  0 
 10 11  1  0  0  0  0 
M  END
> <Name>
1-bromo-4-tert-butylbenzene

> <Source>
NIST2DMolFile

> <Tox>
3.750

> <CAS>
3972-65-4

$$$$

  CDK

 10 10  0  0  0  0  0  0  0  0999 V2000
    0.5071    1.7241    0.0000 C   0  0  0  0  0  0  0  0  0  0  0  0
    0.0000    0.8620    0.0000 N   0  0  0  0  0  0  0  0  0  0  0  0
    1.4705    1.7241    0.0000 C   0  0  0  0  0  0  0  0  0  0  0  0
    0.5071    0.0000    0.0000 C   0  0  0  0  0  0  0  0  0  0  0  0
    1.9776    0.8620    0.0000 C   0  0  0  0  0  0  0  0  0  0  0  0
    1.4705    0.0000    0.0000 C   0  0  0  0  0  0  0  0  0  0  0  0
    2.9918    0.8620    0.0000 C   0  0  0  0  0  0  0  0  0  0  0  0
    3.4989    0.0000    0.0000 C   0  0  0  0  0  0  0  0  0  0  0  0
    3.4989    1.7748    0.0000 C   0  0  0  0  0  0  0  0  0  0  0  0
    4.0059    0.8620    0.0000 C   0  0  0  0  0  0  0  0  0  0  0  0
  1  2  2  0  0  0  0 
  3  1  1  0  0  0  0 
  2  4  1  0  0  0  0 
  5  3  2  0  0  0  0 
  4  6  2  0  0  0  0 
  5  7  1  0  0  0  0 
  6  5  1  0  0  0  0 
  7  8  1  0  0  0  0 
  7  9  1  0  0  0  0 
  7 10  1  0  0  0  0 
M  END
> <Name>
4-tert-butylpyridine

> <Source>
NIST2DMolFile

> <Tox>
3.200

> <CAS>
3978-81-2

$$$$

  CDK

 12 12  0  0  0  0  0  0  0  0999 V2000
    6.0910    1.6108    0.0000 C   0  0  0  0  0  0  0  0  0  0  0  0
    5.2352    2.0639    0.0000 N   0  0  0  0  0  0  0  0  0  0  0  0
    6.9467    1.1075    0.0000 S   0  0  0  0  0  0  0  0  0  0  0  0
    4.3795    1.5102    0.0000 C   0  0  0  0  0  0  0  0  0  0  0  0
    3.4734    2.0135    0.0000 C   0  0  0  0  0  0  0  0  0  0  0  0
    4.3795    0.5537    0.0000 C   0  0  0  0  0  0  0  0  0  0  0  0
    2.6176    1.5102    0.0000 C   0  0  0  0  0  0  0  0  0  0  0  0
    3.4734    0.0503    0.0000 C   0  0  0  0  0  0  0  0  0  0  0  0
    2.6176    0.5034    0.0000 C   0  0  0  0  0  0  0  0  0  0  0  0
    1.7115    0.0000    0.0000 N   0  0  0  0  0  0  0  0  0  0  0  0
    0.8558    0.5034    0.0000 C   0  0  0  0  0  0  0  0  0  0  0  0
    0.0000    1.0068    0.0000 S   0  0  0  0  0  0  0  0  0  0  0  0
  1  2  2  0  0  0  0 
  1  3  2  0  0  0  0 
  2  4  1  0  0  0  0 
  5  4  2  0  0  0  0 
  4  6  1  0  0  0  0 
  7  5  1  0  0  0  0 
  6  8  2  0  0  0  0 
  9  7  2  0  0  0  0 
  8  9  1  0  0  0  0 
  9 10  1  0  0  0  0 
 10 11  2  0  0  0  0 
 11 12  2  0  0  0  0 
M  END
> <Name>
Isothiocyanic acid, 1,4-phenylenedi-

> <Source>
NIST2DMolFile

> <Tox>
6.347

> <CAS>
4044-65-9

$$$$

  CDK

  6  5  0  0  0  0  0  0  0  0999 V2000
    1.5873    0.8929    0.0000 C   0  0  0  0  0  0  0  0  0  0  0  0
    0.5456    0.8929    0.0000 C   0  0  0  0  0  0  0  0  0  0  0  0
    2.0834    0.0496    0.0000 C   0  0  0  0  0  0  0  0  0  0  0  0
    2.0338    1.7361    0.0000 O   0  0  0  0  0  0  0  0  0  0  0  0
    0.0000    1.7361    0.0000 C   0  0  0  0  0  0  0  0  0  0  0  0
    0.0496    0.0000    0.0000 Cl  0  0  0  0  0  0  0  0  0  0  0  0
  1  2  1  0  0  0  0 
  1  3  1  0  0  0  0 
  1  4  2  0  0  0  0 
  2  5  1  0  0  0  0 
  2  6  1  0  0  0  0 
M  END
> <Name>
2-Butanone, 3-chloro-

> <Source>
NIST2DMolFile

> <Tox>
3.269

> <CAS>
4091-39-8

$$$$

  CDK

 17 17  0  0  0  0  0  0  0  0999 V2000
    0.8499    0.9998    0.0000 N   0  0  0  0  0  0  0  0  0  0  0  0
    0.8499    0.0000    0.0000 O   0  0  0  0  0  0  0  0  0  0  0  0
    0.0000    1.4998    0.0000 O   0  0  0  0  0  0  0  0  0  0  0  0
    1.7497    1.4998    0.0000 C   0  0  0  0  0  0  0  0  0  0  0  0
    2.5996    0.9998    0.0000 C   0  0  0  0  0  0  0  0  0  0  0  0
    1.7497    2.4996    0.0000 C   0  0  0  0  0  0  0  0  0  0  0  0
    2.5996    0.0000    0.0000 O   0  0  0  0  0  0  0  0  0  0  0  0
    3.4494    1.4998    0.0000 C   0  0  0  0  0  0  0  0  0  0  0  0
    2.5996    2.9995    0.0000 C   0  0  0  0  0  0  0  0  0  0  0  0
    4.3493    1.0498    0.0000 N   0  0  0  0  0  0  0  0  0  0  0  0
    3.4494    2.4996    0.0000 C   0  0  0  0  0  0  0  0  0  0  0  0
    2.5996    3.9994    0.0000 C   0  0  0  0  0  0  0  0  0  0  0  0
    4.3493    0.0000    0.0000 O   0  0  0  0  0  0  0  0  0  0  0  0
    5.1992    1.5498    0.0000 O   0  0  0  0  0  0  0  0  0  0  0  0
    3.5994    3.9994    0.0000 C   0  0  0  0  0  0  0  0  0  0  0  0
    1.5997    3.9994    0.0000 C   0  0  0  0  0  0  0  0  0  0  0  0
    2.5996    4.9992    0.0000 C   0  0  0  0  0  0  0  0  0  0  0  0
  1  2  2  0  0  0  0 
  1  3  2  0  0  0  0 
  1  4  1  0  0  0  0 
  5  4  2  0  0  0  0 
  4  6  1  0  0  0  0 
  5  7  1  0  0  0  0 
  8  5  1  0  0  0  0 
  6  9  2  0  0  0  0 
  8 10  1  0  0  0  0 
 11  8  2  0  0  0  0 
  9 11  1  0  0  0  0 
  9 12  1  0  0  0  0 
 10 13  2  0  0  0  0 
 10 14  2  0  0  0  0 
 12 15  1  0  0  0  0 
 12 16  1  0  0  0  0 
 12 17  1  0  0  0  0 
M  END
> <Name>
Phenol, 4-(1,1-dimethylethyl)-2,6-dinitro-

> <Source>
NIST2DMolFile

> <Tox>
4.800

> <CAS>
4097-49-8

$$$$

  CDK

 14 14  0  0  0  0  0  0  0  0999 V2000
    1.6978    4.4941    0.0000 O   0  0  0  0  0  0  0  0  0  0  0  0
    2.5966    4.0447    0.0000 N   0  0  0  0  0  0  0  0  0  0  0  0
    3.4455    4.5440    0.0000 O   0  0  0  0  0  0  0  0  0  0  0  0
    2.5966    2.9961    0.0000 C   0  0  0  0  0  0  0  0  0  0  0  0
    1.6978    2.4967    0.0000 C   0  0  0  0  0  0  0  0  0  0  0  0
    3.4455    2.4967    0.0000 C   0  0  0  0  0  0  0  0  0  0  0  0
    1.6978    1.4980    0.0000 C   0  0  0  0  0  0  0  0  0  0  0  0
    3.4455    1.4980    0.0000 C   0  0  0  0  0  0  0  0  0  0  0  0
    0.8489    0.9987    0.0000 N   0  0  0  0  0  0  0  0  0  0  0  0
    2.5966    0.9987    0.0000 C   0  0  0  0  0  0  0  0  0  0  0  0
    4.2943    0.9987    0.0000 C   0  0  0  0  0  0  0  0  0  0  0  0
    0.0000    1.4980    0.0000 O   0  0  0  0  0  0  0  0  0  0  0  0
    0.8489    0.0000    0.0000 O   0  0  0  0  0  0  0  0  0  0  0  0
    5.1432    0.4993    0.0000 N   0  0  0  0  0  0  0  0  0  0  0  0
  1  2  2  0  0  0  0 
  2  3  2  0  0  0  0 
  2  4  1  0  0  0  0 
  5  4  2  0  0  0  0 
  4  6  1  0  0  0  0 
  7  5  1  0  0  0  0 
  6  8  2  0  0  0  0 
  7  9  1  0  0  0  0 
 10  7  2  0  0  0  0 
  8 10  1  0  0  0  0 
  8 11  1  0  0  0  0 
  9 12  2  0  0  0  0 
  9 13  2  0  0  0  0 
 11 14  3  0  0  0  0 
M  END
> <Name>
Benzonitrile, 3,5-dinitro-

> <Source>
NIST2DMolFile

> <Tox>
4.220

> <CAS>
4110-35-4

$$$$

  CDK

  7  6  0  0  0  0  0  0  0  0999 V2000
    0.0000    0.0000    0.0000 C   0  0  0  0  0  0  0  0  0  0  0  0
    0.9225    0.4612    0.0000 C   0  0  0  0  0  0  0  0  0  0  0  0
    1.7937    0.0000    0.0000 C   0  0  0  0  0  0  0  0  0  0  0  0
    2.6137    0.4612    0.0000 C   0  0  0  0  0  0  0  0  0  0  0  0
    3.5361    0.0000    0.0000 C   0  0  0  0  0  0  0  0  0  0  0  0
    2.6137    1.4862    0.0000 N   0  0  0  0  0  0  0  0  0  0  0  0
    4.4073    0.4612    0.0000 O   0  0  0  0  0  0  0  0  0  0  0  0
  1  2  1  0  0  0  0 
  2  3  1  0  0  0  0 
  3  4  1  0  0  0  0 
  4  5  1  0  0  0  0 
  4  6  1  0  0  0  0 
  5  7  1  0  0  0  0 
M  END
> <Name>
1-Pentanol, 2-amino-

> <Source>
NIST2DMolFile

> <Tox>
2.328

> <CAS>
4146-04-7

$$$$

  CDK

  7  6  0  0  0  0  0  0  0  0999 V2000
    2.5967    1.5480    0.0000 C   0  0  0  0  0  0  0  0  0  0  0  0
    1.7478    0.9987    0.0000 C   0  0  0  0  0  0  0  0  0  0  0  0
    2.5967    2.4968    0.0000 O   0  0  0  0  0  0  0  0  0  0  0  0
    3.4955    1.0487    0.0000 O   0  0  0  0  0  0  0  0  0  0  0  0
    0.8988    1.4981    0.0000 C   0  0  0  0  0  0  0  0  0  0  0  0
    1.7478    0.0000    0.0000 Cl  0  0  0  0  0  0  0  0  0  0  0  0
    0.0000    0.9987    0.0000 C   0  0  0  0  0  0  0  0  0  0  0  0
  1  2  1  0  0  0  0 
  1  3  1  0  0  0  0 
  1  4  2  0  0  0  0 
  2  5  1  0  0  0  0 
  2  6  1  0  0  0  0 
  5  7  1  0  0  0  0 
M  END
> <Name>
Butyricacid, 2-chloro- (6CI,7CI,8CI)

> <Source>
NIST2DMolFile

> <Tox>
2.648

> <CAS>
4170-24-5

$$$$

  CDK

  6  5  0  0  0  0  0  0  0  0999 V2000
    0.0000    0.9917    0.0000 C   0  0  0  0  0  0  0  0  0  0  0  0
    0.9917    0.9917    0.0000 C   0  0  0  0  0  0  0  0  0  0  0  0
    1.9833    0.9917    0.0000 C   0  0  0  0  0  0  0  0  0  0  0  0
    2.8263    1.5371    0.0000 C   0  0  0  0  0  0  0  0  0  0  0  0
    1.9833    0.0000    0.0000 O   0  0  0  0  0  0  0  0  0  0  0  0
    3.7188    1.0413    0.0000 C   0  0  0  0  0  0  0  0  0  0  0  0
  1  2  3  0  0  0  0 
  2  3  1  0  0  0  0 
  3  4  1  0  0  0  0 
  3  5  1  0  0  0  0 
  4  6  1  0  0  0  0 
M  END
> <Name>
1-Pentyn-3-ol

> <Source>
NIST2DMolFile

> <Tox>
1.822

> <CAS>
4187-86-4

$$$$

  CDK

 10 10  0  0  0  0  0  0  0  0999 V2000
    2.7480    1.0749    0.0000 O   0  0  0  0  0  0  0  0  0  0  0  0
    2.1177   -0.0115   -0.0002 N   0  0  0  0  0  0  0  0  0  0  0  0
    2.7086   -1.1199    0.0000 O   0  0  0  0  0  0  0  0  0  0  0  0
    0.7006    0.0140   -0.0002 C   0  0  0  0  0  0  0  0  0  0  0  0
    0.0054    1.2181    0.0000 C   0  0  0  0  0  0  0  0  0  0  0  0
   -0.0356   -1.1598    0.0001 C   0  0  0  0  0  0  0  0  0  0  0  0
   -1.3852    1.2116    0.0002 C   0  0  0  0  0  0  0  0  0  0  0  0
   -1.3866   -1.2058    0.0001 N   0  0  0  0  0  0  0  0  0  0  0  0
   -2.0280   -0.0157    0.0001 C   0  0  0  0  0  0  0  0  0  0  0  0
   -3.4450   -0.0059   -0.0003 N   0  0  0  0  0  0  0  0  0  0  0  0
  1  2  1  0  0  0  0 
  3  2  2  0  0  0  0 
  2  4  1  0  0  0  0 
  4  5  1  0  0  0  0 
  4  6  2  0  0  0  0 
  5  7  2  0  0  0  0 
  8  6  1  0  0  0  0 
  7  9  1  0  0  0  0 
  8  9  2  0  0  0  0 
 10  9  1  0  0  0  0 
M  CHG  1   1  -1
M  CHG  1   2   1
M  END
> <Name>
5-nitropyridin-2-amine

> <Source>
Chemidplus3DMolFile

> <Tox>
3.220

> <CAS>
4214-76-0

$$$$

  CDK

  8  8  0  0  0  0  0  0  0  0999 V2000
    1.9950   -2.3036    0.0000 N   0  0  0  0  0  0  0  0  0  0  0  0
    1.3300   -1.1545    0.0000 C   0  0  0  0  0  0  0  0  0  0  0  0
    3.3250   -2.3036    0.0000 C   0  0  0  0  0  0  0  0  0  0  0  0
    0.0000   -1.1545    0.0000 O   0  0  0  0  0  0  0  0  0  0  0  0
    1.9950   -0.0000    0.0000 C   0  0  0  0  0  0  0  0  0  0  0  0
    3.9900   -1.1545    0.0000 C   0  0  0  0  0  0  0  0  0  0  0  0
    3.3250   -0.0000    0.0000 C   0  0  0  0  0  0  0  0  0  0  0  0
    5.3201   -1.1545    0.0000 Cl  0  0  0  0  0  0  0  0  0  0  0  0
  1  2  2  0  0  0  0 
  1  3  1  0  0  0  0 
  2  4  1  0  0  0  0 
  2  5  1  0  0  0  0 
  6  3  2  0  0  0  0 
  5  7  2  0  0  0  0 
  7  6  1  0  0  0  0 
  6  8  1  0  0  0  0 
M  END
> <Name>
5-Chloropyridin-2-ol

> <Source>
DSSTox2DMolFile

> <Tox>
2.250

> <CAS>
4214-79-3

$$$$

  CDK

  9  8  0  0  0  0  0  0  0  0999 V2000
    1.7427    1.4938    0.0000 C   0  0  0  0  0  0  0  0  0  0  0  0
    2.5892    0.9959    0.0000 C   0  0  0  0  0  0  0  0  0  0  0  0
    0.8963    0.9959    0.0000 C   0  0  0  0  0  0  0  0  0  0  0  0
    3.4855    1.4938    0.0000 C   0  0  0  0  0  0  0  0  0  0  0  0
    0.8963    0.0000    0.0000 O   0  0  0  0  0  0  0  0  0  0  0  0
    0.0000    1.4938    0.0000 O   0  0  0  0  0  0  0  0  0  0  0  0
    4.3320    0.9959    0.0000 C   0  0  0  0  0  0  0  0  0  0  0  0
    5.1784    1.4938    0.0000 C   0  0  0  0  0  0  0  0  0  0  0  0
    6.0747    0.9959    0.0000 Br  0  0  0  0  0  0  0  0  0  0  0  0
  1  2  1  0  0  0  0 
  1  3  1  0  0  0  0 
  2  4  1  0  0  0  0 
  3  5  1  0  0  0  0 
  3  6  2  0  0  0  0 
  4  7  1  0  0  0  0 
  7  8  1  0  0  0  0 
  8  9  1  0  0  0  0 
M  END
> <Name>
Hexanoic acid, 6-bromo-

> <Source>
NIST2DMolFile

> <Tox>
3.031

> <CAS>
4224-70-8

$$$$

  CDK

  8  7  0  0  0  0  0  0  0  0999 V2000
   -0.7764    0.5120   -0.2267 O   0  0  0  0  0  0  0  0  0  0  0  0
    0.1781   -0.4560   -0.0734 C   0  0  0  0  0  0  0  0  0  0  0  0
   -2.0640    0.0271   -0.3551 C   0  0  0  0  0  0  0  0  0  0  0  0
   -0.0009   -1.6661   -0.0412 O   0  0  0  0  0  0  0  0  0  0  0  0
    1.5164    0.1942    0.0431 C   0  0  0  0  0  0  0  0  0  0  0  0
   -3.0744    0.3114    0.4695 C   0  0  0  0  0  0  0  0  0  0  0  0
    1.6409    1.6863   -0.0083 C   0  0  0  0  0  0  0  0  0  0  0  0
    2.5803   -0.6088    0.1921 C   0  0  0  0  0  0  0  0  0  0  0  0
  1  2  1  0  0  0  0 
  1  3  1  0  0  0  0 
  4  2  2  0  0  0  0 
  5  2  1  0  0  0  0 
  3  6  2  0  0  0  0 
  5  7  1  0  0  0  0 
  5  8  2  0  0  0  0 
M  END
> <Name>
ethenyl 2-methylprop-2-enoate

> <Source>
Chemidplus3DMolFile

> <Tox>
2.380

> <CAS>
4245-37-8

$$$$

  CDK

 10 11  0  0  0  0  0  0  0  0999 V2000
    2.6110   -0.0109    1.1243 O   0  0  0  0  0  0  0  0  0  0  0  0
    2.1820    0.0058   -0.2387 C   0  0  0  0  0  0  0  0  0  0  0  0
    1.3030    1.2438   -0.4878 C   0  0  0  0  0  0  0  0  0  0  0  0
    1.3077   -1.2335   -0.4935 C   0  0  0  0  0  0  0  0  0  0  0  0
   -0.0629    0.7013   -0.1961 C   0  0  0  0  0  0  0  0  0  0  0  0
   -0.0604   -0.6976   -0.1995 C   0  0  0  0  0  0  0  0  0  0  0  0
   -1.2325    1.4127    0.0145 C   0  0  0  0  0  0  0  0  0  0  0  0
   -1.2271   -1.4144    0.0079 C   0  0  0  0  0  0  0  0  0  0  0  0
   -2.4117    0.6982    0.2361 C   0  0  0  0  0  0  0  0  0  0  0  0
   -2.4091   -0.7055    0.2329 C   0  0  0  0  0  0  0  0  0  0  0  0
  1  2  1  0  0  0  0 
  2  3  1  0  0  0  0 
  2  4  1  0  0  0  0 
  3  5  1  0  0  0  0 
  4  6  1  0  0  0  0 
  5  6  1  0  0  0  0 
  5  7  2  0  0  0  0 
  6  8  2  0  0  0  0 
  7  9  1  0  0  0  0 
  8 10  1  0  0  0  0 
  9 10  2  0  0  0  0 
M  END
> <Name>
2,3-dihydro-1H-inden-2-ol

> <Source>
Chemidplus3DMolFile

> <Tox>
2.310

> <CAS>
4254-29-9

$$$$

  CDK

 10 11  0  0  0  0  0  0  0  0999 V2000
    4.3011    1.0003    0.0000 C   0  0  0  0  0  0  0  0  0  0  0  0
    3.2508    1.0003    0.0000 C   0  0  0  0  0  0  0  0  0  0  0  0
    2.6507    1.8005    0.0000 C   0  0  0  0  0  0  0  0  0  0  0  0
    2.7007    0.2001    0.0000 O   0  0  0  0  0  0  0  0  0  0  0  0
    1.7504    1.5004    0.0000 C   0  0  0  0  0  0  0  0  0  0  0  0
    1.7504    0.5001    0.0000 C   0  0  0  0  0  0  0  0  0  0  0  0
    0.9002    2.0005    0.0000 C   0  0  0  0  0  0  0  0  0  0  0  0
    0.9002    0.0000    0.0000 C   0  0  0  0  0  0  0  0  0  0  0  0
    0.0000    1.5004    0.0000 C   0  0  0  0  0  0  0  0  0  0  0  0
    0.0000    0.5001    0.0000 C   0  0  0  0  0  0  0  0  0  0  0  0
  1  2  1  0  0  0  0 
  3  2  2  0  0  0  0 
  2  4  1  0  0  0  0 
  5  3  1  0  0  0  0 
  4  6  1  0  0  0  0 
  6  5  2  0  0  0  0 
  7  5  1  0  0  0  0 
  6  8  1  0  0  0  0 
  9  7  2  0  0  0  0 
  8 10  2  0  0  0  0 
 10  9  1  0  0  0  0 
M  END
> <Name>
2-methyl-1-benzofuran

> <Source>
NIST2DMolFile

> <Tox>
3.620

> <CAS>
4265-25-2

$$$$

  CDK

  8  7  0  0  0  0  0  0  0  0999 V2000
    0.0000    0.0000    0.0000 Br  0  0  0  0  0  0  0  0  0  0  0  0
    0.9012    0.5007    0.0000 C   0  0  0  0  0  0  0  0  0  0  0  0
    1.7524    0.0000    0.0000 C   0  0  0  0  0  0  0  0  0  0  0  0
    2.6035    0.5007    0.0000 C   0  0  0  0  0  0  0  0  0  0  0  0
    3.5047    0.0000    0.0000 C   0  0  0  0  0  0  0  0  0  0  0  0
    4.3559    0.5007    0.0000 C   0  0  0  0  0  0  0  0  0  0  0  0
    5.1570    0.0000    0.0000 C   0  0  0  0  0  0  0  0  0  0  0  0
    6.0582    0.5007    0.0000 O   0  0  0  0  0  0  0  0  0  0  0  0
  1  2  1  0  0  0  0 
  2  3  1  0  0  0  0 
  3  4  1  0  0  0  0 
  4  5  1  0  0  0  0 
  5  6  1  0  0  0  0 
  7  6  1  0  0  0  0 
  8  7  1  0  0  0  0 
M  END
> <Name>
1-Hexanol, 6-bromo-

> <Source>
NIST2DMolFile

> <Tox>
3.007

> <CAS>
4286-55-9

$$$$

  CDK

  9  8  0  0  0  0  0  0  0  0999 V2000
    1.7503   -1.7220   -0.0036 O   0  0  0  0  0  0  0  0  0  0  0  0
    1.7971   -0.4918   -0.0145 C   0  0  0  0  0  0  0  0  0  0  0  0
    0.5457    0.3748   -0.0257 C   0  0  0  0  0  0  0  0  0  0  0  0
    3.1357    0.1626    0.0013 C   0  0  0  0  0  0  0  0  0  0  0  0
   -0.7558   -0.4288    0.0207 C   0  0  0  0  0  0  0  0  0  0  0  0
    3.3243    1.4849    0.0150 C   0  0  0  0  0  0  0  0  0  0  0  0
   -1.9983    0.4673    0.0041 C   0  0  0  0  0  0  0  0  0  0  0  0
   -3.2810   -0.3647    0.0234 C   0  0  0  0  0  0  0  0  0  0  0  0
   -4.5182    0.5178   -0.0206 C   0  0  0  0  0  0  0  0  0  0  0  0
  1  2  2  0  0  0  0 
  3  2  1  0  0  0  0 
  2  4  1  0  0  0  0 
  5  3  1  0  0  0  0 
  4  6  2  0  0  0  0 
  7  5  1  0  0  0  0 
  7  8  1  0  0  0  0 
  8  9  1  0  0  0  0 
M  END
> <Name>
oct-1-en-3-one

> <Source>
Chemidplus3DMolFile

> <Tox>
4.920

> <CAS>
4312-99-6

$$$$

  CDK

  8  7  0  0  0  0  0  0  0  0999 V2000
   -4.0931   -0.3325   -0.1342 O   0  0  0  0  0  0  0  0  0  0  0  0
   -3.0423    0.0898    0.3329 C   0  0  0  0  0  0  0  0  0  0  0  0
   -1.7396   -0.1826   -0.3054 C   0  0  0  0  0  0  0  0  0  0  0  0
   -0.6269    0.3075    0.2546 C   0  0  0  0  0  0  0  0  0  0  0  0
    0.6891    0.0887   -0.3032 C   0  0  0  0  0  0  0  0  0  0  0  0
    1.8107    0.5748    0.2492 C   0  0  0  0  0  0  0  0  0  0  0  0
    3.1805    0.3583   -0.3246 C   0  0  0  0  0  0  0  0  0  0  0  0
    3.8214   -0.9040    0.2307 C   0  0  0  0  0  0  0  0  0  0  0  0
  1  2  2  0  0  0  0 
  3  2  1  0  0  0  0 
  4  3  2  0  0  0  0 
  5  4  1  0  0  0  0 
  6  5  2  0  0  0  0 
  7  6  1  0  0  0  0 
  7  8  1  0  0  0  0 
M  END
> <Name>
(2E,4E)-hepta-2,4-dienal

> <Source>
Chemidplus3DMolFile

> <Tox>
3.862

> <CAS>
4313-03-5

$$$$

  CDK

 11 11  0  0  0  0  0  0  0  0999 V2000
   -0.2481    2.7306   -0.0017 Cl  0  0  0  0  0  0  0  0  0  0  0  0
    0.4748    1.1676    0.0027 C   0  0  0  0  0  0  0  0  0  0  0  0
    1.8236    1.2039    0.0008 N   0  0  0  0  0  0  0  0  0  0  0  0
   -0.2606    0.0001    0.0028 C   0  0  0  0  0  0  0  0  0  0  0  0
    2.4244   -0.0013   -0.0013 C   0  0  0  0  0  0  0  0  0  0  0  0
   -1.6815    0.0008    0.0004 N   0  0  0  0  0  0  0  0  0  0  0  0
    0.4738   -1.1682    0.0002 C   0  0  0  0  0  0  0  0  0  0  0  0
    1.8225   -1.2059   -0.0018 N   0  0  0  0  0  0  0  0  0  0  0  0
   -2.2880    1.0988   -0.0020 O   0  0  0  0  0  0  0  0  0  0  0  0
   -2.2892   -1.0965    0.0001 O   0  0  0  0  0  0  0  0  0  0  0  0
   -0.2518   -2.7301   -0.0003 Cl  0  0  0  0  0  0  0  0  0  0  0  0
  1  2  1  0  0  0  0 
  3  2  2  0  0  0  0 
  4  2  1  0  0  0  0 
  3  5  1  0  0  0  0 
  6  4  1  0  0  0  0 
  4  7  2  0  0  0  0 
  8  5  2  0  0  0  0 
  9  6  1  0  0  0  0 
 10  6  2  0  0  0  0 
 11  7  1  0  0  0  0 
  8  7  1  0  0  0  0 
M  CHG  1   6   1
M  CHG  1   9  -1
M  END
> <Name>
4,6-dichloro-5-nitropyrimidine

> <Source>
Chemidplus3DMolFile

> <Tox>
5.120

> <CAS>
4316-93-2

$$$$

  CDK

  8  7  0  0  0  0  0  0  0  0999 V2000
   -0.6844    0.9881   -1.3525 O   0  0  0  0  0  0  0  0  0  0  0  0
   -0.6547    0.5072   -0.0076 C   0  0  0  0  0  0  0  0  0  0  0  0
    0.8056    0.5290    0.4878 C   0  0  0  0  0  0  0  0  0  0  0  0
   -1.5069    1.4494    0.8490 C   0  0  0  0  0  0  0  0  0  0  0  0
   -1.2169   -0.8562    0.0423 C   0  0  0  0  0  0  0  0  0  0  0  0
    1.7601   -0.3547   -0.3284 C   0  0  0  0  0  0  0  0  0  0  0  0
   -1.6781   -1.9643    0.0818 C   0  0  0  0  0  0  0  0  0  0  0  0
    3.1755   -0.2985    0.2276 C   0  0  0  0  0  0  0  0  0  0  0  0
  1  2  1  0  0  0  0 
  3  2  1  0  0  0  0 
  2  4  1  0  0  0  0 
  2  5  1  0  0  0  0 
  3  6  1  0  0  0  0 
  5  7  3  0  0  0  0 
  6  8  1  0  0  0  0 
M  END
> <Name>
3-methylhex-1-yn-3-ol

> <Source>
Chemidplus3DMolFile

> <Tox>
2.100

> <CAS>
4339-05-3

$$$$

  CDK

  8  7  0  0  0  0  0  0  0  0999 V2000
    1.0151    1.6750    0.0000 C   0  0  0  0  0  0  0  0  0  0  0  0
    2.0303    1.6750    0.0000 C   0  0  0  0  0  0  0  0  0  0  0  0
    0.0000    1.6750    0.0000 C   0  0  0  0  0  0  0  0  0  0  0  0
    2.9946    1.6750    0.0000 C   0  0  0  0  0  0  0  0  0  0  0  0
    3.5530    2.5378    0.0000 O   0  0  0  0  0  0  0  0  0  0  0  0
    3.5530    0.8629    0.0000 O   0  0  0  0  0  0  0  0  0  0  0  0
    4.5173    0.8629    0.0000 C   0  0  0  0  0  0  0  0  0  0  0  0
    5.0756    0.0000    0.0000 C   0  0  0  0  0  0  0  0  0  0  0  0
  1  2  3  0  0  0  0 
  1  3  1  0  0  0  0 
  2  4  1  0  0  0  0 
  4  5  2  0  0  0  0 
  4  6  1  0  0  0  0 
  6  7  1  0  0  0  0 
  7  8  1  0  0  0  0 
M  END
> <Name>
ethyl but-2-ynoate

> <Source>
NIST2DMolFile

> <Tox>
3.510

> <CAS>
4341-76-8

$$$$

  CDK

 10 10  0  0  0  0  0  0  0  0999 V2000
    3.3258    0.1244    0.0000 C   0  0  0  0  0  0  0  0  0  0  0  0
    1.9377    0.4150    0.0000 C   0  0  0  0  0  0  0  0  0  0  0  0
    4.4641   -0.1017    0.0000 N   0  0  0  0  0  0  0  0  0  0  0  0
    1.0066   -0.5512    0.0000 C   0  0  0  0  0  0  0  0  0  0  0  0
   -0.4215   -0.2530    0.0000 C   0  0  0  0  0  0  0  0  0  0  0  0
   -1.3454   -1.3038    0.0000 C   0  0  0  0  0  0  0  0  0  0  0  0
   -0.8838    1.0673    0.0000 C   0  0  0  0  0  0  0  0  0  0  0  0
   -2.7080   -1.0322    0.0000 C   0  0  0  0  0  0  0  0  0  0  0  0
   -2.2467    1.3332    0.0000 C   0  0  0  0  0  0  0  0  0  0  0  0
   -3.1603    0.2839    0.0000 C   0  0  0  0  0  0  0  0  0  0  0  0
  1  2  1  0  0  0  0 
  1  3  3  0  0  0  0 
  2  4  2  0  0  0  0 
  4  5  1  0  0  0  0 
  5  6  1  0  0  0  0 
  5  7  2  0  0  0  0 
  6  8  2  0  0  0  0 
  9  7  1  0  0  0  0 
  8 10  1  0  0  0  0 
 10  9  2  0  0  0  0 
M  END
> <Name>
2-Propenenitrile, 3-phenyl-

> <Source>
DougDB3DMolFile

> <Tox>
3.160

> <CAS>
4360-47-8

$$$$

  CDK

  9  8  0  0  0  0  0  0  0  0999 V2000
    1.8828    1.0177    0.0000 C   0  0  0  0  0  0  0  0  0  0  0  0
    2.7987    1.5266    0.0000 C   0  0  0  0  0  0  0  0  0  0  0  0
    0.9159    0.5089    0.0000 C   0  0  0  0  0  0  0  0  0  0  0  0
    3.7147    1.0177    0.0000 C   0  0  0  0  0  0  0  0  0  0  0  0
    2.0863    1.9845    0.0000 C   0  0  0  0  0  0  0  0  0  0  0  0
    3.4602    1.9337    0.0000 O   0  0  0  0  0  0  0  0  0  0  0  0
    0.0000    0.0000    0.0000 C   0  0  0  0  0  0  0  0  0  0  0  0
    4.6306    1.5266    0.0000 C   0  0  0  0  0  0  0  0  0  0  0  0
    5.5974    1.0177    0.0000 C   0  0  0  0  0  0  0  0  0  0  0  0
  1  2  1  0  0  0  0 
  1  3  3  0  0  0  0 
  2  4  1  0  0  0  0 
  2  5  1  0  0  0  0 
  2  6  1  0  0  0  0 
  3  7  1  0  0  0  0 
  4  8  1  0  0  0  0 
  8  9  1  0  0  0  0 
M  END
> <Name>
4-methyl-2-heptyn-4-ol

> <Source>
NIST2DMolFile

> <Tox>
2.520

> <CAS>
4376-16-3

$$$$

  CDK

 11 11  0  0  0  0  0  0  0  0999 V2000
   -2.6421   -0.0181    0.1493 O   0  0  0  0  0  0  0  0  0  0  0  0
   -1.2876   -0.0519    0.0089 C   0  0  0  0  0  0  0  0  0  0  0  0
   -3.3213   -1.2717    0.1869 C   0  0  0  0  0  0  0  0  0  0  0  0
   -0.5498    1.1309   -0.0365 C   0  0  0  0  0  0  0  0  0  0  0  0
   -0.6390   -1.2828   -0.0899 C   0  0  0  0  0  0  0  0  0  0  0  0
   -1.1720    2.3392    0.0580 O   0  0  0  0  0  0  0  0  0  0  0  0
    0.8367    1.0829   -0.1809 C   0  0  0  0  0  0  0  0  0  0  0  0
    0.7475   -1.3309   -0.2345 C   0  0  0  0  0  0  0  0  0  0  0  0
    1.4854   -0.1480   -0.2800 C   0  0  0  0  0  0  0  0  0  0  0  0
    2.9679   -0.1996   -0.4334 C   0  0  0  0  0  0  0  0  0  0  0  0
    3.5745   -0.2500    0.8521 O   0  0  0  0  0  0  0  0  0  0  0  0
  1  2  1  0  0  0  0 
  1  3  1  0  0  0  0 
  2  4  2  0  0  0  0 
  2  5  1  0  0  0  0 
  6  4  1  0  0  0  0 
  7  4  1  0  0  0  0 
  8  5  2  0  0  0  0 
  9  7  2  0  0  0  0 
  9  8  1  0  0  0  0 
  9 10  1  0  0  0  0 
 11 10  1  0  0  0  0 
M  END
> <Name>
5-(hydroxymethyl)-2-methoxyphenol

> <Source>
Chemidplus3DMolFile

> <Tox>
2.010

> <CAS>
4383-06-6

$$$$

  CDK

  9  8  0  0  0  0  0  0  0  0999 V2000
    0.0000    0.0000    0.0000 C   0  0  0  0  0  0  0  0  0  0  0  0
    0.8687    0.4599    0.0000 C   0  0  0  0  0  0  0  0  0  0  0  0
    1.7375    0.0000    0.0000 C   0  0  0  0  0  0  0  0  0  0  0  0
    2.6573    0.4599    0.0000 C   0  0  0  0  0  0  0  0  0  0  0  0
    3.5260    0.0000    0.0000 C   0  0  0  0  0  0  0  0  0  0  0  0
    4.4458    0.4599    0.0000 C   0  0  0  0  0  0  0  0  0  0  0  0
    5.3146    0.0000    0.0000 N   0  0  0  0  0  0  0  0  0  0  0  0
    6.1833    0.4599    0.0000 C   0  0  0  0  0  0  0  0  0  0  0  0
    7.1031    0.0000    0.0000 S   0  0  0  0  0  0  0  0  0  0  0  0
  1  2  1  0  0  0  0 
  2  3  1  0  0  0  0 
  3  4  1  0  0  0  0 
  4  5  1  0  0  0  0 
  5  6  1  0  0  0  0 
  6  7  1  0  0  0  0 
  7  8  2  0  0  0  0 
  8  9  2  0  0  0  0 
M  END
> <Name>
Hexane, 1-isothiocyanato-

> <Source>
NIST2DMolFile

> <Tox>
4.750

> <CAS>
4404-45-9

$$$$

  CDK

 11 11  0  0  0  0  0  0  0  0999 V2000
    2.6057    4.0087    0.0000 C   0  0  0  0  0  0  0  0  0  0  0  0
    1.7538    3.5076    0.0000 O   0  0  0  0  0  0  0  0  0  0  0  0
    1.7538    2.5055    0.0000 C   0  0  0  0  0  0  0  0  0  0  0  0
    2.6057    2.0044    0.0000 C   0  0  0  0  0  0  0  0  0  0  0  0
    0.9020    2.0044    0.0000 C   0  0  0  0  0  0  0  0  0  0  0  0
    2.6057    1.0022    0.0000 C   0  0  0  0  0  0  0  0  0  0  0  0
    0.0000    2.5055    0.0000 O   0  0  0  0  0  0  0  0  0  0  0  0
    0.9020    1.0022    0.0000 C   0  0  0  0  0  0  0  0  0  0  0  0
    3.5076    0.5011    0.0000 C   0  0  0  0  0  0  0  0  0  0  0  0
    1.7538    0.5011    0.0000 C   0  0  0  0  0  0  0  0  0  0  0  0
    4.3595    0.0000    0.0000 N   0  0  0  0  0  0  0  0  0  0  0  0
  1  2  1  0  0  0  0 
  2  3  1  0  0  0  0 
  3  4  2  0  0  0  0 
  5  3  1  0  0  0  0 
  4  6  1  0  0  0  0 
  5  7  1  0  0  0  0 
  8  5  2  0  0  0  0 
  6  9  1  0  0  0  0 
  6 10  2  0  0  0  0 
 10  8  1  0  0  0  0 
  9 11  3  0  0  0  0 
M  END
> <Name>
4-Hydroxy-3-methoxybenzonitrile

> <Source>
NIST2DMolFile

> <Tox>
2.970

> <CAS>
4421-08-3

$$$$

  CDK

  8  7  0  0  0  0  0  0  0  0999 V2000
    0.0000    1.0036    0.0000 C   0  0  0  0  0  0  0  0  0  0  0  0
    0.8531    1.5054    0.0000 C   0  0  0  0  0  0  0  0  0  0  0  0
    1.7563    1.0036    0.0000 C   0  0  0  0  0  0  0  0  0  0  0  0
    2.6094    1.5054    0.0000 C   0  0  0  0  0  0  0  0  0  0  0  0
    1.7563    0.0000    0.0000 O   0  0  0  0  0  0  0  0  0  0  0  0
    3.4123    1.0036    0.0000 C   0  0  0  0  0  0  0  0  0  0  0  0
    2.6094    2.5090    0.0000 O   0  0  0  0  0  0  0  0  0  0  0  0
    4.3155    1.5054    0.0000 C   0  0  0  0  0  0  0  0  0  0  0  0
  1  2  1  0  0  0  0 
  2  3  1  0  0  0  0 
  3  4  1  0  0  0  0 
  3  5  2  0  0  0  0 
  4  6  1  0  0  0  0 
  4  7  2  0  0  0  0 
  6  8  1  0  0  0  0 
M  END
> <Name>
3,4-Hexanedione

> <Source>
NIST2DMolFile

> <Tox>
2.990

> <CAS>
4437-51-8

$$$$

  CDK

 14 14  0  0  0  0  0  0  0  0999 V2000
    4.6558   -3.4539    0.0000 C   0  0  0  0  0  0  0  0  0  0  0  0
    5.9821   -3.4539    0.0000 C   0  0  0  0  0  0  0  0  0  0  0  0
    3.9858   -4.6074    0.0000 C   0  0  0  0  0  0  0  0  0  0  0  0
    3.9858   -2.3003    0.0000 C   0  0  0  0  0  0  0  0  0  0  0  0
    6.6452   -4.6074    0.0000 O   0  0  0  0  0  0  0  0  0  0  0  0
    4.6558   -5.7541    0.0000 O   0  0  0  0  0  0  0  0  0  0  0  0
    2.6595   -4.6074    0.0000 C   0  0  0  0  0  0  0  0  0  0  0  0
    2.6595   -2.3003    0.0000 C   0  0  0  0  0  0  0  0  0  0  0  0
    3.9858   -6.9077    0.0000 C   0  0  0  0  0  0  0  0  0  0  0  0
    1.9963   -3.4539    0.0000 C   0  0  0  0  0  0  0  0  0  0  0  0
    1.9963   -1.1536    0.0000 O   0  0  0  0  0  0  0  0  0  0  0  0
    0.6631   -3.4539    0.0000 O   0  0  0  0  0  0  0  0  0  0  0  0
    2.6595   -0.0000    0.0000 C   0  0  0  0  0  0  0  0  0  0  0  0
    0.0000   -2.3003    0.0000 C   0  0  0  0  0  0  0  0  0  0  0  0
  1  2  1  0  0  0  0 
  1  3  2  0  0  0  0 
  1  4  1  0  0  0  0 
  2  5  2  0  0  0  0 
  3  6  1  0  0  0  0 
  3  7  1  0  0  0  0 
  8  4  2  0  0  0  0 
  6  9  1  0  0  0  0 
  7 10  2  0  0  0  0 
 10  8  1  0  0  0  0 
  8 11  1  0  0  0  0 
 10 12  1  0  0  0  0 
 11 13  1  0  0  0  0 
 12 14  1  0  0  0  0 
M  END
> <Name>
Benzaldehyde, 2,4,5-trimethoxy-

> <Source>
DSSTox2DMolFile

> <Tox>
2.900

> <CAS>
4460-86-0

$$$$

  CDK

  9  9  0  0  0  0  0  0  0  0999 V2000
   -1.1456    0.9224   -0.4318 O   0  0  0  0  0  0  0  0  0  0  0  0
   -0.8469   -0.3639   -0.1922 C   0  0  0  0  0  0  0  0  0  0  0  0
   -2.4365    1.0674   -0.0327 C   0  0  0  0  0  0  0  0  0  0  0  0
    0.5585   -0.7669   -0.5616 C   0  0  0  0  0  0  0  0  0  0  0  0
   -1.8739   -1.0587    0.3400 C   0  0  0  0  0  0  0  0  0  0  0  0
   -2.9296   -0.1225    0.4499 C   0  0  0  0  0  0  0  0  0  0  0  0
    1.5983    0.0789    0.1789 C   0  0  0  0  0  0  0  0  0  0  0  0
    3.0200   -0.3101   -0.2263 C   0  0  0  0  0  0  0  0  0  0  0  0
    4.0557    0.5535    0.4757 C   0  0  0  0  0  0  0  0  0  0  0  0
  1  2  1  0  0  0  0 
  1  3  1  0  0  0  0 
  4  2  1  0  0  0  0 
  2  5  2  0  0  0  0 
  6  3  2  0  0  0  0 
  7  4  1  0  0  0  0 
  5  6  1  0  0  0  0 
  7  8  1  0  0  0  0 
  8  9  1  0  0  0  0 
M  END
> <Name>
2-butylfuran

> <Source>
Chemidplus3DMolFile

> <Tox>
3.440

> <CAS>
4466-24-4

$$$$

  CDK

 10 10  0  0  0  0  0  0  0  0999 V2000
   -3.8791   -0.0256   -0.0006 Br  0  0  0  0  0  0  0  0  0  0  0  0
   -1.9798   -0.0022   -0.0001 C   0  0  0  0  0  0  0  0  0  0  0  0
   -1.3439   -1.1953   -0.0001 N   0  0  0  0  0  0  0  0  0  0  0  0
   -1.3313    1.2221    0.0003 C   0  0  0  0  0  0  0  0  0  0  0  0
    0.0073   -1.1555    0.0003 C   0  0  0  0  0  0  0  0  0  0  0  0
    0.0592    1.2222    0.0006 C   0  0  0  0  0  0  0  0  0  0  0  0
    0.7489    0.0149    0.0004 C   0  0  0  0  0  0  0  0  0  0  0  0
    2.1658   -0.0175   -0.0002 N   0  0  0  0  0  0  0  0  0  0  0  0
    2.8016    1.0657   -0.0007 O   0  0  0  0  0  0  0  0  0  0  0  0
    2.7513   -1.1289    0.0001 O   0  0  0  0  0  0  0  0  0  0  0  0
  1  2  1  0  0  0  0 
  3  2  2  0  0  0  0 
  4  2  1  0  0  0  0 
  3  5  1  0  0  0  0 
  6  4  2  0  0  0  0 
  7  5  2  0  0  0  0 
  7  6  1  0  0  0  0 
  8  7  1  0  0  0  0 
  9  8  1  0  0  0  0 
 10  8  2  0  0  0  0 
M  CHG  1   8   1
M  CHG  1   9  -1
M  END
> <Name>
2-bromo-5-nitropyridine

> <Source>
Chemidplus3DMolFile

> <Tox>
4.070

> <CAS>
4487-59-6

$$$$

  CDK

  7  7  0  0  0  0  0  0  0  0999 V2000
   -0.5213   -1.0897    0.0002 N   0  0  0  0  0  0  0  0  0  0  0  0
    0.2688    0.0302    0.0003 C   0  0  0  0  0  0  0  0  0  0  0  0
   -1.8411   -0.7205   -0.0002 C   0  0  0  0  0  0  0  0  0  0  0  0
   -0.5595    1.1309    0.0002 C   0  0  0  0  0  0  0  0  0  0  0  0
    1.6880    0.0064    0.0000 C   0  0  0  0  0  0  0  0  0  0  0  0
   -1.8942    0.6560   -0.0002 C   0  0  0  0  0  0  0  0  0  0  0  0
    2.8592   -0.0133   -0.0002 N   0  0  0  0  0  0  0  0  0  0  0  0
  1  2  1  0  0  0  0 
  1  3  1  0  0  0  0 
  2  4  2  0  0  0  0 
  2  5  1  0  0  0  0 
  3  6  2  0  0  0  0 
  4  6  1  0  0  0  0 
  7  5  3  0  0  0  0 
M  END
> <Name>
1H-pyrrole-2-carbonitrile

> <Source>
Chemidplus3DMolFile

> <Tox>
2.420

> <CAS>
4513-94-4

$$$$

  CDK

 10 10  0  0  0  0  0  0  0  0999 V2000
   -0.1562    1.1897    0.0015 S   0  0  0  0  0  0  0  0  0  0  0  0
    0.9468   -0.1202   -0.0011 C   0  0  0  0  0  0  0  0  0  0  0  0
   -1.5000    0.1285    0.0028 C   0  0  0  0  0  0  0  0  0  0  0  0
    2.3240    0.1443   -0.0005 N   0  0  0  0  0  0  0  0  0  0  0  0
    0.3031   -1.3381   -0.0008 C   0  0  0  0  0  0  0  0  0  0  0  0
   -1.1145   -1.1939    0.0014 C   0  0  0  0  0  0  0  0  0  0  0  0
   -2.8181    0.6756    0.0008 C   0  0  0  0  0  0  0  0  0  0  0  0
    3.1453   -0.8157    0.0006 O   0  0  0  0  0  0  0  0  0  0  0  0
    2.7315    1.3402   -0.0013 O   0  0  0  0  0  0  0  0  0  0  0  0
   -3.8620   -0.0106   -0.0032 O   0  0  0  0  0  0  0  0  0  0  0  0
  1  2  1  0  0  0  0 
  1  3  1  0  0  0  0 
  4  2  1  0  0  0  0 
  2  5  2  0  0  0  0 
  3  6  2  0  0  0  0 
  3  7  1  0  0  0  0 
  8  4  1  0  0  0  0 
  9  4  2  0  0  0  0 
  5  6  1  0  0  0  0 
 10  7  2  0  0  0  0 
M  CHG  1   4   1
M  CHG  1   8  -1
M  END
> <Name>
5-nitrothiophene-2-carbaldehyde

> <Source>
Chemidplus3DMolFile

> <Tox>
4.980

> <CAS>
4521-33-9

$$$$

  CDK

 10 10  0  0  0  0  0  0  0  0999 V2000
   -3.7122   -0.0613    0.0001 Cl  0  0  0  0  0  0  0  0  0  0  0  0
   -1.9983    0.0206   -0.0001 C   0  0  0  0  0  0  0  0  0  0  0  0
   -1.3719   -1.1774   -0.0001 N   0  0  0  0  0  0  0  0  0  0  0  0
   -1.3402    1.2399    0.0001 C   0  0  0  0  0  0  0  0  0  0  0  0
   -0.0204   -1.1483    0.0000 C   0  0  0  0  0  0  0  0  0  0  0  0
    0.0503    1.2289    0.0000 C   0  0  0  0  0  0  0  0  0  0  0  0
    0.7305    0.0162   -0.0002 C   0  0  0  0  0  0  0  0  0  0  0  0
    2.1470   -0.0272   -0.0001 N   0  0  0  0  0  0  0  0  0  0  0  0
    2.7911    1.0513    0.0001 O   0  0  0  0  0  0  0  0  0  0  0  0
    2.7240   -1.1429    0.0001 O   0  0  0  0  0  0  0  0  0  0  0  0
  1  2  1  0  0  0  0 
  3  2  2  0  0  0  0 
  4  2  1  0  0  0  0 
  3  5  1  0  0  0  0 
  6  4  2  0  0  0  0 
  7  5  2  0  0  0  0 
  7  6  1  0  0  0  0 
  8  7  1  0  0  0  0 
  9  8  1  0  0  0  0 
 10  8  2  0  0  0  0 
M  CHG  1   8   1
M  CHG  1   9  -1
M  END
> <Name>
2-chloro-5-nitropyridine

> <Source>
Chemidplus3DMolFile

> <Tox>
3.800

> <CAS>
4548-45-2

$$$$

  CDK

 14 14  0  0  0  0  0  0  0  0999 V2000
    3.4243    2.5682    0.0000 C   0  0  0  0  0  0  0  0  0  0  0  0
    2.5179    2.5682    0.0000 C   0  0  0  0  0  0  0  0  0  0  0  0
    3.9783    3.4747    0.0000 C   0  0  0  0  0  0  0  0  0  0  0  0
    2.0143    3.4747    0.0000 C   0  0  0  0  0  0  0  0  0  0  0  0
    2.0143    1.7625    0.0000 C   0  0  0  0  0  0  0  0  0  0  0  0
    3.4243    4.3308    0.0000 C   0  0  0  0  0  0  0  0  0  0  0  0
    2.4675    4.3308    0.0000 C   0  0  0  0  0  0  0  0  0  0  0  0
    2.5179    0.9064    0.0000 C   0  0  0  0  0  0  0  0  0  0  0  0
    1.0072    1.7625    0.0000 C   0  0  0  0  0  0  0  0  0  0  0  0
    3.5250    0.9064    0.0000 O   0  0  0  0  0  0  0  0  0  0  0  0
    2.0647    0.0000    0.0000 O   0  0  0  0  0  0  0  0  0  0  0  0
    0.0000    1.7625    0.0000 N   0  0  0  0  0  0  0  0  0  0  0  0
    3.9783    0.0000    0.0000 C   0  0  0  0  0  0  0  0  0  0  0  0
    5.0358    0.0000    0.0000 C   0  0  0  0  0  0  0  0  0  0  0  0
  2  1  2  0  0  0  0 
  1  3  1  0  0  0  0 
  4  2  1  0  0  0  0 
  2  5  1  0  0  0  0 
  3  6  2  0  0  0  0 
  7  4  2  0  0  0  0 
  5  8  1  0  0  0  0 
  5  9  1  0  0  0  0 
  6  7  1  0  0  0  0 
 10  8  1  0  0  0  0 
  8 11  2  0  0  0  0 
  9 12  3  0  0  0  0 
 13 10  1  0  0  0  0 
 14 13  1  0  0  0  0 
M  END
> <Name>
Benzeneacetic acid, alpha-cyano-, ethyl ester

> <Source>
NIST2DMolFile

> <Tox>
2.980

> <CAS>
4553-07-5

$$$$

  CDK

  9  8  0  0  0  0  0  0  0  0999 V2000
   -0.5207    1.4872   -0.0085 O   0  0  0  0  0  0  0  0  0  0  0  0
   -0.5654    0.2600   -0.0168 C   0  0  0  0  0  0  0  0  0  0  0  0
    0.6794   -0.6103   -0.0369 C   0  0  0  0  0  0  0  0  0  0  0  0
   -1.8615   -0.4776   -0.0024 C   0  0  0  0  0  0  0  0  0  0  0  0
    1.9660    0.2136   -0.0221 C   0  0  0  0  0  0  0  0  0  0  0  0
   -3.0271    0.1815    0.0141 C   0  0  0  0  0  0  0  0  0  0  0  0
    3.2017   -0.6851   -0.0036 C   0  0  0  0  0  0  0  0  0  0  0  0
   -4.3559   -0.5007    0.0269 C   0  0  0  0  0  0  0  0  0  0  0  0
    4.4834    0.1313    0.0494 C   0  0  0  0  0  0  0  0  0  0  0  0
  1  2  2  0  0  0  0 
  3  2  1  0  0  0  0 
  2  4  1  0  0  0  0 
  5  3  1  0  0  0  0 
  4  6  2  0  0  0  0 
  5  7  1  0  0  0  0 
  6  8  1  0  0  0  0 
  7  9  1  0  0  0  0 
M  END
> <Name>
(E)-oct-2-en-4-one

> <Source>
Chemidplus3DMolFile

> <Tox>
4.010

> <CAS>
4643-27-0

$$$$

  CDK

  6  5  0  0  0  0  0  0  0  0999 V2000
   -2.7912   -0.0568   -0.3120 Br  0  0  0  0  0  0  0  0  0  0  0  0
   -1.1359    0.7687    0.3164 C   0  0  0  0  0  0  0  0  0  0  0  0
    0.0645    0.0030   -0.2171 C   0  0  0  0  0  0  0  0  0  0  0  0
    0.0335   -1.3199    0.3226 O   0  0  0  0  0  0  0  0  0  0  0  0
    1.3677    0.6680    0.2171 C   0  0  0  0  0  0  0  0  0  0  0  0
    2.4615   -0.0629   -0.3271 O   0  0  0  0  0  0  0  0  0  0  0  0
  1  2  1  0  0  0  0 
  3  2  1  0  0  0  0 
  4  3  1  0  0  0  0 
  3  5  1  0  0  0  0 
  6  5  1  0  0  0  0 
M  END
> <Name>
3-bromopropane-1,2-diol

> <Source>
Chemidplus3DMolFile

> <Tox>
1.790

> <CAS>
4704-77-2

$$$$

  CDK

 16 18  0  0  0  0  0  0  0  0999 V2000
    2.9484    2.6434    0.0000 C   0  0  0  0  0  0  0  0  0  0  0  0
    3.4568    3.5076    0.0000 C   0  0  0  0  0  0  0  0  0  0  0  0
    1.9826    2.6434    0.0000 C   0  0  0  0  0  0  0  0  0  0  0  0
    3.4568    1.7792    0.0000 C   0  0  0  0  0  0  0  0  0  0  0  0
    2.9484    4.3718    0.0000 C   0  0  0  0  0  0  0  0  0  0  0  0
    1.4742    3.5076    0.0000 C   0  0  0  0  0  0  0  0  0  0  0  0
    1.4742    1.7792    0.0000 C   0  0  0  0  0  0  0  0  0  0  0  0
    2.9484    0.9150    0.0000 C   0  0  0  0  0  0  0  0  0  0  0  0
    1.9826    4.3718    0.0000 C   0  0  0  0  0  0  0  0  0  0  0  0
    1.9826    0.9150    0.0000 C   0  0  0  0  0  0  0  0  0  0  0  0
    0.4575    1.7792    0.0000 C   0  0  0  0  0  0  0  0  0  0  0  0
    3.5076    0.0000    0.0000 C   0  0  0  0  0  0  0  0  0  0  0  0
    1.4742    0.0508    0.0000 C   0  0  0  0  0  0  0  0  0  0  0  0
    0.0000    0.9659    0.0000 C   0  0  0  0  0  0  0  0  0  0  0  0
    4.5243    0.0000    0.0000 O   0  0  0  0  0  0  0  0  0  0  0  0
    0.4575    0.0508    0.0000 C   0  0  0  0  0  0  0  0  0  0  0  0
  1  2  2  0  0  0  0 
  1  3  1  0  0  0  0 
  4  1  1  0  0  0  0 
  2  5  1  0  0  0  0 
  6  3  2  0  0  0  0 
  3  7  1  0  0  0  0 
  8  4  2  0  0  0  0 
  5  9  2  0  0  0  0 
  9  6  1  0  0  0  0 
 10  7  2  0  0  0  0 
  7 11  1  0  0  0  0 
 10  8  1  0  0  0  0 
  8 12  1  0  0  0  0 
 13 10  1  0  0  0  0 
 11 14  2  0  0  0  0 
 12 15  2  0  0  0  0 
 16 13  2  0  0  0  0 
 14 16  1  0  0  0  0 
M  END
> <Name>
Phenanthrene-9-carbaldehyde

> <Source>
NIST2DMolFile

> <Tox>
4.708

> <CAS>
4707-71-5

$$$$

  CDK

 12 12  0  0  0  0  0  0  0  0999 V2000
   -2.7592    1.0047   -0.0005 O   0  0  0  0  0  0  0  0  0  0  0  0
   -1.3956    0.9723    0.0002 C   0  0  0  0  0  0  0  0  0  0  0  0
   -0.6973   -0.2353   -0.0002 C   0  0  0  0  0  0  0  0  0  0  0  0
   -0.6992    2.1808    0.0005 C   0  0  0  0  0  0  0  0  0  0  0  0
    0.6976   -0.2343   -0.0004 C   0  0  0  0  0  0  0  0  0  0  0  0
   -1.4326   -1.4684    0.0000 C   0  0  0  0  0  0  0  0  0  0  0  0
    0.6957    2.1818    0.0003 C   0  0  0  0  0  0  0  0  0  0  0  0
    1.3941    0.9743   -0.0001 C   0  0  0  0  0  0  0  0  0  0  0  0
    1.4350   -1.4662    0.0000 C   0  0  0  0  0  0  0  0  0  0  0  0
   -2.0243   -2.4605    0.0001 N   0  0  0  0  0  0  0  0  0  0  0  0
    2.7577    1.0083   -0.0004 O   0  0  0  0  0  0  0  0  0  0  0  0
    2.0281   -2.4574    0.0004 N   0  0  0  0  0  0  0  0  0  0  0  0
  1  2  1  0  0  0  0 
  3  2  2  0  0  0  0 
  2  4  1  0  0  0  0 
  3  5  1  0  0  0  0 
  3  6  1  0  0  0  0 
  4  7  2  0  0  0  0 
  5  8  2  0  0  0  0 
  5  9  1  0  0  0  0 
 10  6  3  0  0  0  0 
  8  7  1  0  0  0  0 
 11  8  1  0  0  0  0 
 12  9  3  0  0  0  0 
M  END
> <Name>
3,6-dihydroxybenzene-1,2-dicarbonitrile

> <Source>
Chemidplus3DMolFile

> <Tox>
2.560

> <CAS>
4733-50-0

$$$$

  CDK

 10 10  0  0  0  0  0  0  0  0999 V2000
    0.0000    0.0000    0.0000 C   0  0  0  0  0  0  0  0  0  0  0  0
    0.5042    0.8571    0.0000 C   0  0  0  0  0  0  0  0  0  0  0  0
    1.5126    0.8571    0.0000 C   0  0  0  0  0  0  0  0  0  0  0  0
    2.0168    1.7142    0.0000 C   0  0  0  0  0  0  0  0  0  0  0  0
    2.0168    0.0000    0.0000 C   0  0  0  0  0  0  0  0  0  0  0  0
    3.0251    1.7142    0.0000 C   0  0  0  0  0  0  0  0  0  0  0  0
    3.0251    0.0000    0.0000 C   0  0  0  0  0  0  0  0  0  0  0  0
    3.5293    0.8571    0.0000 C   0  0  0  0  0  0  0  0  0  0  0  0
    4.5377    0.8571    0.0000 C   0  0  0  0  0  0  0  0  0  0  0  0
    5.0419    1.7142    0.0000 O   0  0  0  0  0  0  0  0  0  0  0  0
  1  2  1  0  0  0  0 
  2  3  1  0  0  0  0 
  4  3  2  0  0  0  0 
  3  5  1  0  0  0  0 
  6  4  1  0  0  0  0 
  5  7  2  0  0  0  0 
  8  6  2  0  0  0  0 
  7  8  1  0  0  0  0 
  8  9  1  0  0  0  0 
  9 10  2  0  0  0  0 
M  END
> <Name>
Benzaldehyde, 4-ethyl-

> <Source>
NIST2DMolFile

> <Tox>
3.291

> <CAS>
4748-78-1

$$$$

  CDK

  9  8  0  0  0  0  0  0  0  0999 V2000
    1.7427    1.4938    0.0000 O   0  0  0  0  0  0  0  0  0  0  0  0
    2.5892    0.9959    0.0000 C   0  0  0  0  0  0  0  0  0  0  0  0
    0.8963    0.9959    0.0000 C   0  0  0  0  0  0  0  0  0  0  0  0
    3.4855    1.4938    0.0000 C   0  0  0  0  0  0  0  0  0  0  0  0
    0.8963    0.0000    0.0000 C   0  0  0  0  0  0  0  0  0  0  0  0
    0.0000    1.4938    0.0000 O   0  0  0  0  0  0  0  0  0  0  0  0
    4.3320    0.9959    0.0000 C   0  0  0  0  0  0  0  0  0  0  0  0
    5.1784    1.4938    0.0000 C   0  0  0  0  0  0  0  0  0  0  0  0
    6.0747    0.9959    0.0000 Br  0  0  0  0  0  0  0  0  0  0  0  0
  1  2  1  0  0  0  0 
  1  3  1  0  0  0  0 
  2  4  1  0  0  0  0 
  3  5  1  0  0  0  0 
  3  6  2  0  0  0  0 
  4  7  1  0  0  0  0 
  7  8  1  0  0  0  0 
  8  9  1  0  0  0  0 
M  END
> <Name>
1-Butanol, 4-bromo-, acetate

> <Source>
NIST2DMolFile

> <Tox>
3.392

> <CAS>
4753-59-7

$$$$

  CDK

 12 13  0  0  0  0  0  0  0  0999 V2000
    0.0000    0.0000    0.0000 O   0  0  0  0  0  0  0  0  0  0  0  0
    1.2000    0.3600    0.6600 C   0  0  0  0  0  0  0  0  0  0  0  0
    1.3800    1.8400    0.6000 C   0  0  0  0  0  0  0  0  0  0  0  0
    2.6600    2.4400    0.5800 C   0  0  0  0  0  0  0  0  0  0  0  0
    0.2400    2.6600    0.6000 C   0  0  0  0  0  0  0  0  0  0  0  0
    2.7600    3.8600    0.5400 C   0  0  0  0  0  0  0  0  0  0  0  0
    3.8200    1.6600    0.5800 C   0  0  0  0  0  0  0  0  0  0  0  0
    0.3600    4.0400    0.5400 C   0  0  0  0  0  0  0  0  0  0  0  0
    1.6200    4.6600    0.5200 C   0  0  0  0  0  0  0  0  0  0  0  0
    4.0400    4.4800    0.5000 C   0  0  0  0  0  0  0  0  0  0  0  0
    5.0800    2.2800    0.5600 C   0  0  0  0  0  0  0  0  0  0  0  0
    5.2000    3.6800    0.5200 C   0  0  0  0  0  0  0  0  0  0  0  0
  1  2  1  0  0  0  0 
  2  3  1  0  0  0  0 
  3  4  2  0  0  0  0 
  3  5  1  0  0  0  0 
  4  6  1  0  0  0  0 
  4  7  1  0  0  0  0 
  8  5  2  0  0  0  0 
  6  9  2  0  0  0  0 
  6 10  1  0  0  0  0 
 11  7  2  0  0  0  0 
  9  8  1  0  0  0  0 
 10 12  2  0  0  0  0 
 12 11  1  0  0  0  0 
M  END
> <Name>
naphthalen-1-ylmethanol

> <Source>
NIH3DMolFile

> <Tox>
3.130

> <CAS>
4780-79-4

$$$$

  CDK

  7  6  0  0  0  0  0  0  0  0999 V2000
    0.0000   -1.3315    0.0000 C   0  0  0  0  0  0  0  0  0  0  0  0
    1.1518   -1.9950    0.0000 C   0  0  0  0  0  0  0  0  0  0  0  0
    2.3037   -1.3315    0.0000 C   0  0  0  0  0  0  0  0  0  0  0  0
    2.3037   -0.0000    0.0000 O   0  0  0  0  0  0  0  0  0  0  0  0
    3.4555   -1.9950    0.0000 C   0  0  0  0  0  0  0  0  0  0  0  0
    4.6073   -1.3315    0.0000 C   0  0  0  0  0  0  0  0  0  0  0  0
    4.6073   -0.0000    0.0000 C   0  0  0  0  0  0  0  0  0  0  0  0
  1  2  2  0  0  0  0 
  2  3  1  0  0  0  0 
  3  4  1  0  0  0  0 
  3  5  1  0  0  0  0 
  5  6  1  0  0  0  0 
  6  7  1  0  0  0  0 
M  END
> <Name>
1-Hexen-3-ol

> <Source>
DSSTox2DMolFile

> <Tox>
2.189

> <CAS>
4798-44-1

$$$$

  CDK

 10 10  0  0  0  0  0  0  0  0999 V2000
    4.7094   -0.1174    1.1709 Br  0  0  0  0  0  0  0  0  0  0  0  0
    3.5260    0.0532   -0.3702 C   0  0  0  0  0  0  0  0  0  0  0  0
    2.0853    0.0139    0.0974 C   0  0  0  0  0  0  0  0  0  0  0  0
    0.9676    0.1006   -1.3303 S   0  0  0  0  0  0  0  0  0  0  0  0
   -0.6305    0.0394   -0.5435 C   0  0  0  0  0  0  0  0  0  0  0  0
   -1.2632    1.2209   -0.1567 C   0  0  0  0  0  0  0  0  0  0  0  0
   -1.2488   -1.1900   -0.3148 C   0  0  0  0  0  0  0  0  0  0  0  0
   -2.5139    1.1732    0.4589 C   0  0  0  0  0  0  0  0  0  0  0  0
   -2.4997   -1.2376    0.3007 C   0  0  0  0  0  0  0  0  0  0  0  0
   -3.1322   -0.0561    0.6875 C   0  0  0  0  0  0  0  0  0  0  0  0
  1  2  1  0  0  0  0 
  3  2  1  0  0  0  0 
  4  3  1  0  0  0  0 
  4  5  1  0  0  0  0 
  5  6  2  0  0  0  0 
  5  7  1  0  0  0  0 
  6  8  1  0  0  0  0 
  7  9  2  0  0  0  0 
  8 10  2  0  0  0  0 
  9 10  1  0  0  0  0 
M  END
> <Name>
2-bromoethylsulfanylbenzene

> <Source>
Chemidplus3DMolFile

> <Tox>
3.390

> <CAS>
4837-01-8

$$$$

  CDK

 11 10  0  0  0  0  0  0  0  0999 V2000
   -1.9858    0.6101   -0.0364 C   0  0  0  0  0  0  0  0  0  0  0  0
   -0.9728   -0.1717   -0.8329 C   0  0  0  0  0  0  0  0  0  0  0  0
   -1.8527    1.3162    0.9484 O   0  0  0  0  0  0  0  0  0  0  0  0
   -3.2514    0.5396   -0.5157 O   0  0  0  0  0  0  0  0  0  0  0  0
   -0.0002   -1.0246    0.0003 C   0  0  0  0  0  0  0  0  0  0  0  0
    0.9731   -0.1720    0.8330 C   0  0  0  0  0  0  0  0  0  0  0  0
   -0.7881   -1.9203    0.9601 C   0  0  0  0  0  0  0  0  0  0  0  0
    0.7870   -1.9214   -0.9590 C   0  0  0  0  0  0  0  0  0  0  0  0
    1.9862    0.6093    0.0360 C   0  0  0  0  0  0  0  0  0  0  0  0
    1.8532    1.3129   -0.9506 O   0  0  0  0  0  0  0  0  0  0  0  0
    3.2515    0.5411    0.5166 O   0  0  0  0  0  0  0  0  0  0  0  0
  1  2  1  0  0  0  0 
  1  3  2  0  0  0  0 
  1  4  1  0  0  0  0 
  2  5  1  0  0  0  0 
  5  6  1  0  0  0  0 
  5  7  1  0  0  0  0 
  5  8  1  0  0  0  0 
  6  9  1  0  0  0  0 
  9 10  2  0  0  0  0 
  9 11  1  0  0  0  0 
M  END
> <Name>
Glutaric acid, 3,3-dimethyl- (8CI)

> <Source>
DougDB3DMolFile

> <Tox>
2.336

> <CAS>
4839-46-7

$$$$

  CDK

 10 10  0  0  0  0  0  0  0  0999 V2000
   -1.9288    0.0943    1.4247 S   0  0  0  0  0  0  0  0  0  0  0  0
   -1.1632   -0.5982    0.0765 C   0  0  0  0  0  0  0  0  0  0  0  0
   -2.8747    1.0964    0.4081 C   0  0  0  0  0  0  0  0  0  0  0  0
   -0.1159   -1.6597    0.3064 C   0  0  0  0  0  0  0  0  0  0  0  0
   -1.5928   -0.1035   -1.1147 C   0  0  0  0  0  0  0  0  0  0  0  0
   -2.5960    0.8902   -0.9251 C   0  0  0  0  0  0  0  0  0  0  0  0
    1.2392   -1.3183   -0.3235 C   0  0  0  0  0  0  0  0  0  0  0  0
    1.8843   -0.0634    0.2730 C   0  0  0  0  0  0  0  0  0  0  0  0
    3.2424    0.2198   -0.3701 C   0  0  0  0  0  0  0  0  0  0  0  0
    3.9055    1.4422    0.2446 C   0  0  0  0  0  0  0  0  0  0  0  0
  1  2  1  0  0  0  0 
  1  3  1  0  0  0  0 
  4  2  1  0  0  0  0 
  2  5  2  0  0  0  0 
  6  3  2  0  0  0  0 
  7  4  1  0  0  0  0 
  5  6  1  0  0  0  0 
  7  8  1  0  0  0  0 
  8  9  1  0  0  0  0 
  9 10  1  0  0  0  0 
M  END
> <Name>
2-pentylthiophene

> <Source>
Chemidplus3DMolFile

> <Tox>
4.200

> <CAS>
4861-58-9

$$$$

  CDK

  8  7  0  0  0  0  0  0  0  0999 V2000
    1.3992    3.6380    0.0000 O   0  0  0  0  0  0  0  0  0  0  0  0
    0.0000    3.6380    0.0000 C   0  0  0  0  0  0  0  0  0  0  0  0
    2.0988    2.4253    0.0000 C   0  0  0  0  0  0  0  0  0  0  0  0
    1.3992    1.2127    0.0000 O   0  0  0  0  0  0  0  0  0  0  0  0
    3.4981    2.4253    0.0000 C   0  0  0  0  0  0  0  0  0  0  0  0
    4.1977    1.2127    0.0000 C   0  0  0  0  0  0  0  0  0  0  0  0
    5.5969    1.2127    0.0000 C   0  0  0  0  0  0  0  0  0  0  0  0
    6.2965    0.0000    0.0000 Br  0  0  0  0  0  0  0  0  0  0  0  0
  1  2  1  0  0  0  0 
  1  3  1  0  0  0  0 
  3  4  2  0  0  0  0 
  3  5  1  0  0  0  0 
  5  6  1  0  0  0  0 
  6  7  1  0  0  0  0 
  7  8  1  0  0  0  0 
M  END
> <Name>
methyl 4-bromobutanoate

> <Source>
IndexNet2DMolFile

> <Tox>
3.068

> <CAS>
4897-84-1

$$$$

  CDK

 11 11  0  0  0  0  0  0  0  0999 V2000
    3.9904   -4.6078    0.0000 O   0  0  0  0  0  0  0  0  0  0  0  0
    3.3268   -3.4558    0.0000 C   0  0  0  0  0  0  0  0  0  0  0  0
    1.9952   -3.4558    0.0000 C   0  0  0  0  0  0  0  0  0  0  0  0
    3.9904   -2.3039    0.0000 C   0  0  0  0  0  0  0  0  0  0  0  0
    1.3317   -4.6078    0.0000 Cl  0  0  0  0  0  0  0  0  0  0  0  0
    1.3317   -2.3039    0.0000 C   0  0  0  0  0  0  0  0  0  0  0  0
    3.3268   -1.1519    0.0000 C   0  0  0  0  0  0  0  0  0  0  0  0
    0.0000   -2.3039    0.0000 Cl  0  0  0  0  0  0  0  0  0  0  0  0
    1.9952   -1.1519    0.0000 C   0  0  0  0  0  0  0  0  0  0  0  0
    3.9904   -0.0000    0.0000 Cl  0  0  0  0  0  0  0  0  0  0  0  0
    1.3317   -0.0000    0.0000 Cl  0  0  0  0  0  0  0  0  0  0  0  0
  1  2  1  0  0  0  0 
  2  3  2  0  0  0  0 
  2  4  1  0  0  0  0 
  3  5  1  0  0  0  0 
  3  6  1  0  0  0  0 
  7  4  2  0  0  0  0 
  6  8  1  0  0  0  0 
  6  9  2  0  0  0  0 
  9  7  1  0  0  0  0 
  7 10  1  0  0  0  0 
  9 11  1  0  0  0  0 
M  END
> <Name>
Phenol, 2,3,4,5-tetrachloro-

> <Source>
DSSTox2DMolFile

> <Tox>
5.720

> <CAS>
4901-51-3

$$$$

  CDK

 14 15  0  0  0  0  0  0  0  0999 V2000
    1.9964   -3.4570    0.0000 C   0  0  0  0  0  0  0  0  0  0  0  0
    0.6655   -3.4570    0.0000 C   0  0  0  0  0  0  0  0  0  0  0  0
    2.6619   -2.3075    0.0000 C   0  0  0  0  0  0  0  0  0  0  0  0
    0.0000   -2.3075    0.0000 N   0  0  0  0  0  0  0  0  0  0  0  0
    1.9964   -1.1581    0.0000 C   0  0  0  0  0  0  0  0  0  0  0  0
    3.9928   -2.3075    0.0000 C   0  0  0  0  0  0  0  0  0  0  0  0
    0.6655   -1.1581    0.0000 C   0  0  0  0  0  0  0  0  0  0  0  0
    4.6497   -1.1581    0.0000 C   0  0  0  0  0  0  0  0  0  0  0  0
    5.9806   -1.1581    0.0000 C   0  0  0  0  0  0  0  0  0  0  0  0
    6.6461   -0.0000    0.0000 C   0  0  0  0  0  0  0  0  0  0  0  0
    6.6461   -2.3075    0.0000 C   0  0  0  0  0  0  0  0  0  0  0  0
    7.9770   -0.0000    0.0000 C   0  0  0  0  0  0  0  0  0  0  0  0
    7.9770   -2.3075    0.0000 C   0  0  0  0  0  0  0  0  0  0  0  0
    8.6425   -1.1581    0.0000 N   0  0  0  0  0  0  0  0  0  0  0  0
  1  2  2  0  0  0  0 
  1  3  1  0  0  0  0 
  2  4  1  0  0  0  0 
  5  3  2  0  0  0  0 
  3  6  1  0  0  0  0 
  4  7  2  0  0  0  0 
  7  5  1  0  0  0  0 
  6  8  1  0  0  0  0 
  8  9  1  0  0  0  0 
  9 10  2  0  0  0  0 
  9 11  1  0  0  0  0 
 10 12  1  0  0  0  0 
 13 11  2  0  0  0  0 
 12 14  2  0  0  0  0 
 14 13  1  0  0  0  0 
M  END
> <Name>
Pyridine, 4,4'-(1,2-ethanediyl)bis-

> <Source>
DSSTox2DMolFile

> <Tox>
2.970

> <CAS>
4916-57-8

$$$$

  CDK

 11 11  0  0  0  0  0  0  0  0999 V2000
    0.5386    1.1833   -0.0005 C   0  0  0  0  0  0  0  0  0  0  0  0
   -0.1782   -0.0444    0.0004 C   0  0  0  0  0  0  0  0  0  0  0  0
    1.9484    1.1996   -0.0018 C   0  0  0  0  0  0  0  0  0  0  0  0
   -0.0185    2.4115   -0.0008 O   0  0  0  0  0  0  0  0  0  0  0  0
    0.5661   -1.2523    0.0015 C   0  0  0  0  0  0  0  0  0  0  0  0
   -1.6562   -0.0200   -0.0003 N   0  0  0  0  0  0  0  0  0  0  0  0
    2.6433    0.0087   -0.0013 C   0  0  0  0  0  0  0  0  0  0  0  0
    1.9550   -1.2046    0.0007 C   0  0  0  0  0  0  0  0  0  0  0  0
   -0.0584   -2.6031    0.0036 C   0  0  0  0  0  0  0  0  0  0  0  0
   -2.3319   -1.0238   -0.0081 O   0  0  0  0  0  0  0  0  0  0  0  0
   -2.2130    1.0779    0.0066 O   0  0  0  0  0  0  0  0  0  0  0  0
  1  2  1  0  0  0  0 
  1  3  2  0  0  0  0 
  1  4  1  0  0  0  0 
  2  5  2  0  0  0  0 
  2  6  1  0  0  0  0 
  7  3  1  0  0  0  0 
  5  8  1  0  0  0  0 
  5  9  1  0  0  0  0 
  6 10  2  0  0  0  0 
  6 11  1  0  0  0  0 
  8  7  2  0  0  0  0 
M  CHG  1   6   1
M  CHG  1  11  -1
M  END
> <Name>
Phenol, 3-methyl-2-nitro- (9CI)

> <Source>
DougDB3DMolFile

> <Tox>
3.610

> <CAS>
4920-77-8

$$$$

  CDK

 18 18  0  0  0  0  0  0  0  0999 V2000
    4.6024   -4.6542    0.0000 C   0  0  0  0  0  0  0  0  0  0  0  0
    3.4518   -3.9908    0.0000 C   0  0  0  0  0  0  0  0  0  0  0  0
    5.7633   -3.9908    0.0000 O   0  0  0  0  0  0  0  0  0  0  0  0
    4.6024   -5.9810    0.0000 O   0  0  0  0  0  0  0  0  0  0  0  0
    2.3012   -4.6542    0.0000 C   0  0  0  0  0  0  0  0  0  0  0  0
    3.4518   -2.6536    0.0000 C   0  0  0  0  0  0  0  0  0  0  0  0
    6.9139   -4.6542    0.0000 C   0  0  0  0  0  0  0  0  0  0  0  0
    1.1506   -3.9908    0.0000 C   0  0  0  0  0  0  0  0  0  0  0  0
    2.3012   -1.9902    0.0000 C   0  0  0  0  0  0  0  0  0  0  0  0
    8.0645   -3.9908    0.0000 C   0  0  0  0  0  0  0  0  0  0  0  0
    1.1506   -2.6536    0.0000 C   0  0  0  0  0  0  0  0  0  0  0  0
    9.2151   -4.6542    0.0000 C   0  0  0  0  0  0  0  0  0  0  0  0
    8.0645   -2.6536    0.0000 C   0  0  0  0  0  0  0  0  0  0  0  0
    0.0000   -1.9902    0.0000 O   0  0  0  0  0  0  0  0  0  0  0  0
   10.3657   -3.9908    0.0000 C   0  0  0  0  0  0  0  0  0  0  0  0
    9.2151   -1.9902    0.0000 C   0  0  0  0  0  0  0  0  0  0  0  0
    9.2151   -0.6634    0.0000 C   0  0  0  0  0  0  0  0  0  0  0  0
   10.3657   -0.0000    0.0000 C   0  0  0  0  0  0  0  0  0  0  0  0
  1  2  1  0  0  0  0 
  1  3  1  0  0  0  0 
  1  4  2  0  0  0  0 
  2  5  1  0  0  0  0 
  2  6  2  0  0  0  0 
  3  7  1  0  0  0  0 
  5  8  2  0  0  0  0 
  9  6  1  0  0  0  0 
  7 10  1  0  0  0  0 
  8 11  1  0  0  0  0 
 11  9  2  0  0  0  0 
 10 12  1  0  0  0  0 
 10 13  1  0  0  0  0 
 11 14  1  0  0  0  0 
 12 15  1  0  0  0  0 
 13 16  1  0  0  0  0 
 16 17  1  0  0  0  0 
 17 18  1  0  0  0  0 
M  END
> <Name>
2-ethylhexyl 4-hydroxybenzoate

> <Source>
DSSTox2DMolFile

> <Tox>
5.510

> <CAS>
5153-25-3

$$$$

  CDK

  9  9  0  0  0  0  0  0  0  0999 V2000
    3.0021    0.8650    0.0000 C   0  0  0  0  0  0  0  0  0  0  0  0
    1.9844    0.8650    0.0000 C   0  0  0  0  0  0  0  0  0  0  0  0
    3.5109    1.7300    0.0000 C   0  0  0  0  0  0  0  0  0  0  0  0
    1.5265    1.7300    0.0000 C   0  0  0  0  0  0  0  0  0  0  0  0
    1.5265    0.0000    0.0000 I   0  0  0  0  0  0  0  0  0  0  0  0
    3.0021    2.5950    0.0000 C   0  0  0  0  0  0  0  0  0  0  0  0
    1.9844    2.5950    0.0000 C   0  0  0  0  0  0  0  0  0  0  0  0
    0.5088    1.7300    0.0000 C   0  0  0  0  0  0  0  0  0  0  0  0
    0.0000    0.8650    0.0000 O   0  0  0  0  0  0  0  0  0  0  0  0
  2  1  2  0  0  0  0 
  1  3  1  0  0  0  0 
  4  2  1  0  0  0  0 
  2  5  1  0  0  0  0 
  3  6  2  0  0  0  0 
  7  4  2  0  0  0  0 
  4  8  1  0  0  0  0 
  6  7  1  0  0  0  0 
  8  9  1  0  0  0  0 
M  END
> <Name>
Benzenemethanol, 2-iodo-

> <Source>
NIST2DMolFile

> <Tox>
3.330

> <CAS>
5159-41-1

$$$$

  CDK

 12 12  0  0  0  0  0  0  0  0999 V2000
    0.0498    1.7433    0.0000 O   0  0  0  0  0  0  0  0  0  0  0  0
    0.4981    0.8467    0.0000 N   0  0  0  0  0  0  0  0  0  0  0  0
    0.0000    0.0000    0.0000 O   0  0  0  0  0  0  0  0  0  0  0  0
    1.5441    0.8467    0.0000 C   0  0  0  0  0  0  0  0  0  0  0  0
    2.0422    1.7433    0.0000 C   0  0  0  0  0  0  0  0  0  0  0  0
    2.0422    0.0000    0.0000 C   0  0  0  0  0  0  0  0  0  0  0  0
    1.5441    2.5900    0.0000 O   0  0  0  0  0  0  0  0  0  0  0  0
    3.0383    1.7433    0.0000 C   0  0  0  0  0  0  0  0  0  0  0  0
    3.0383    0.0000    0.0000 C   0  0  0  0  0  0  0  0  0  0  0  0
    3.5364    2.5900    0.0000 C   0  0  0  0  0  0  0  0  0  0  0  0
    3.5364    0.8467    0.0000 C   0  0  0  0  0  0  0  0  0  0  0  0
    4.5326    2.5900    0.0000 O   0  0  0  0  0  0  0  0  0  0  0  0
  1  2  2  0  0  0  0 
  2  3  2  0  0  0  0 
  2  4  1  0  0  0  0 
  5  4  2  0  0  0  0 
  4  6  1  0  0  0  0 
  5  7  1  0  0  0  0 
  8  5  1  0  0  0  0 
  6  9  2  0  0  0  0 
  8 10  1  0  0  0  0 
 11  8  2  0  0  0  0 
  9 11  1  0  0  0  0 
 10 12  2  0  0  0  0 
M  END
> <Name>
Benzaldehyde, 2-hydroxy-3-nitro-

> <Source>
NIST2DMolFile

> <Tox>
3.870

> <CAS>
5274-70-4

$$$$

  CDK

 17 17  0  0  0  0  0  0  0  0999 V2000
    0.0000   -1.3305    0.0000 C   0  0  0  0  0  0  0  0  0  0  0  0
    1.1531   -1.9997    0.0000 O   0  0  0  0  0  0  0  0  0  0  0  0
    2.3061   -1.3305    0.0000 C   0  0  0  0  0  0  0  0  0  0  0  0
    2.3061   -0.0000    0.0000 O   0  0  0  0  0  0  0  0  0  0  0  0
    3.4592   -1.9997    0.0000 C   0  0  0  0  0  0  0  0  0  0  0  0
    4.6042   -1.3305    0.0000 C   0  0  0  0  0  0  0  0  0  0  0  0
    3.4592   -3.3302    0.0000 C   0  0  0  0  0  0  0  0  0  0  0  0
    5.7573   -1.9997    0.0000 C   0  0  0  0  0  0  0  0  0  0  0  0
    4.6042   -3.9914    0.0000 C   0  0  0  0  0  0  0  0  0  0  0  0
    2.3061   -3.9914    0.0000 N   0  0  0  0  0  0  0  0  0  0  0  0
    5.7573   -3.3302    0.0000 C   0  0  0  0  0  0  0  0  0  0  0  0
    1.1531   -3.3302    0.0000 O   0  0  0  0  0  0  0  0  0  0  0  0
    2.3061   -5.3218    0.0000 O   0  0  0  0  0  0  0  0  0  0  0  0
    6.9103   -3.9914    0.0000 C   0  0  0  0  0  0  0  0  0  0  0  0
    6.9103   -5.3218    0.0000 O   0  0  0  0  0  0  0  0  0  0  0  0
    8.0634   -3.3302    0.0000 O   0  0  0  0  0  0  0  0  0  0  0  0
    8.0634   -1.9997    0.0000 C   0  0  0  0  0  0  0  0  0  0  0  0
  1  2  1  0  0  0  0 
  2  3  1  0  0  0  0 
  3  4  2  0  0  0  0 
  3  5  1  0  0  0  0 
  5  6  2  0  0  0  0 
  5  7  1  0  0  0  0 
  6  8  1  0  0  0  0 
  9  7  2  0  0  0  0 
  7 10  1  0  0  0  0 
  8 11  2  0  0  0  0 
 11  9  1  0  0  0  0 
 10 12  1  0  0  0  0 
 10 13  2  0  0  0  0 
 11 14  1  0  0  0  0 
 14 15  2  0  0  0  0 
 14 16  1  0  0  0  0 
 16 17  1  0  0  0  0 
M  CHG  1  10   1
M  CHG  1  12  -1
M  END
> <Name>
1,4-Benzenedicarboxylic acid, 2-nitro-, dimethyl ester

> <Source>
DSSTox2DMolFile

> <Tox>
3.430

> <CAS>
5292-45-5

$$$$

  CDK

 10 10  0  0  0  0  0  0  0  0999 V2000
    1.7356    0.4594    0.0000 C   0  0  0  0  0  0  0  0  0  0  0  0
    1.7356    1.5315    0.0000 C   0  0  0  0  0  0  0  0  0  0  0  0
    0.8678    0.0000    0.0000 C   0  0  0  0  0  0  0  0  0  0  0  0
    0.8678    1.9909    0.0000 C   0  0  0  0  0  0  0  0  0  0  0  0
    2.6035    1.9909    0.0000 S   0  0  0  0  0  0  0  0  0  0  0  0
    0.0000    0.4594    0.0000 C   0  0  0  0  0  0  0  0  0  0  0  0
    0.0000    1.5315    0.0000 C   0  0  0  0  0  0  0  0  0  0  0  0
    3.5223    1.4804    0.0000 C   0  0  0  0  0  0  0  0  0  0  0  0
    4.3391    1.8888    0.0000 C   0  0  0  0  0  0  0  0  0  0  0  0
    5.2069    1.4294    0.0000 C   0  0  0  0  0  0  0  0  0  0  0  0
  2  1  2  0  0  0  0 
  1  3  1  0  0  0  0 
  4  2  1  0  0  0  0 
  2  5  1  0  0  0  0 
  3  6  2  0  0  0  0 
  7  4  2  0  0  0  0 
  5  8  1  0  0  0  0 
  6  7  1  0  0  0  0 
  8  9  1  0  0  0  0 
  9 10  2  0  0  0  0 
M  END
> <Name>
(Allylthio)benzene

> <Source>
NIST2DMolFile

> <Tox>
3.690

> <CAS>
5296-64-0

$$$$

  CDK

 13 14  0  0  0  0  0  0  0  0999 V2000
    0.8531    2.0074    0.0000 C   0  0  0  0  0  0  0  0  0  0  0  0
    0.0000    1.5056    0.0000 C   0  0  0  0  0  0  0  0  0  0  0  0
    1.7063    1.5056    0.0000 C   0  0  0  0  0  0  0  0  0  0  0  0
    0.0000    0.5019    0.0000 C   0  0  0  0  0  0  0  0  0  0  0  0
    1.7063    0.5019    0.0000 C   0  0  0  0  0  0  0  0  0  0  0  0
    2.6096    2.0074    0.0000 C   0  0  0  0  0  0  0  0  0  0  0  0
    0.8531    0.0000    0.0000 C   0  0  0  0  0  0  0  0  0  0  0  0
    2.6096    0.0000    0.0000 C   0  0  0  0  0  0  0  0  0  0  0  0
    3.4628    1.5056    0.0000 C   0  0  0  0  0  0  0  0  0  0  0  0
    2.6096    3.0111    0.0000 O   0  0  0  0  0  0  0  0  0  0  0  0
    3.4628    0.5019    0.0000 C   0  0  0  0  0  0  0  0  0  0  0  0
    3.4628    3.5130    0.0000 C   0  0  0  0  0  0  0  0  0  0  0  0
    4.3159    3.0111    0.0000 C   0  0  0  0  0  0  0  0  0  0  0  0
  2  1  2  0  0  0  0 
  1  3  1  0  0  0  0 
  4  2  1  0  0  0  0 
  5  3  2  0  0  0  0 
  3  6  1  0  0  0  0 
  7  4  2  0  0  0  0 
  5  7  1  0  0  0  0 
  8  5  1  0  0  0  0 
  6  9  2  0  0  0  0 
  6 10  1  0  0  0  0 
 11  8  2  0  0  0  0 
  9 11  1  0  0  0  0 
 12 10  1  0  0  0  0 
 13 12  1  0  0  0  0 
M  END
> <Name>
1-ethoxynaphthalene

> <Source>
NIST2DMolFile

> <Tox>
4.250

> <CAS>
5328-01-8

$$$$

  CDK

  7  6  0  0  0  0  0  0  0  0999 V2000
    1.3534   -1.3669    0.1369 O   0  0  0  0  0  0  0  0  0  0  0  0
    1.4350   -0.1463    0.0272 C   0  0  0  0  0  0  0  0  0  0  0  0
    0.4267    0.7632    0.2571 N   0  0  0  0  0  0  0  0  0  0  0  0
    2.7052    0.5280   -0.4174 C   0  0  0  0  0  0  0  0  0  0  0  0
   -0.9125    0.3662    0.6752 C   0  0  0  0  0  0  0  0  0  0  0  0
   -1.7987    0.1255   -0.5443 C   0  0  0  0  0  0  0  0  0  0  0  0
   -3.2091   -0.2698   -0.1346 C   0  0  0  0  0  0  0  0  0  0  0  0
  1  2  2  0  0  0  0 
  3  2  1  0  0  0  0 
  2  4  1  0  0  0  0 
  3  5  1  0  0  0  0 
  5  6  1  0  0  0  0 
  6  7  1  0  0  0  0 
M  END
> <Name>
N-propylacetamide

> <Source>
Chemidplus3DMolFile

> <Tox>
1.502

> <CAS>
5331-48-6

$$$$

  CDK

  6  5  0  0  0  0  0  0  0  0999 V2000
    0.0000    0.4594    0.0000 Br  0  0  0  0  0  0  0  0  0  0  0  0
    0.8677    0.9188    0.0000 C   0  0  0  0  0  0  0  0  0  0  0  0
    1.7355    0.4594    0.0000 C   0  0  0  0  0  0  0  0  0  0  0  0
    2.6543    0.9188    0.0000 C   0  0  0  0  0  0  0  0  0  0  0  0
    3.5220    0.4594    0.0000 C   0  0  0  0  0  0  0  0  0  0  0  0
    4.4408    0.0000    0.0000 N   0  0  0  0  0  0  0  0  0  0  0  0
  1  2  1  0  0  0  0 
  2  3  1  0  0  0  0 
  3  4  1  0  0  0  0 
  4  5  1  0  0  0  0 
  5  6  3  0  0  0  0 
M  END
> <Name>
Butanenitrile, 4-bromo-

> <Source>
NIST2DMolFile

> <Tox>
2.535

> <CAS>
5332-06-9

$$$$

  CDK

  6  5  0  0  0  0  0  0  0  0999 V2000
    1.1480   -0.0000    0.0000 C   0  0  0  0  0  0  0  0  0  0  0  0
    2.2960   -0.6716    0.0000 C   0  0  0  0  0  0  0  0  0  0  0  0
    0.0000   -0.6716    0.0000 N   0  0  0  0  0  0  0  0  0  0  0  0
    3.4440   -0.0000    0.0000 C   0  0  0  0  0  0  0  0  0  0  0  0
    4.5920   -0.6716    0.0000 O   0  0  0  0  0  0  0  0  0  0  0  0
    5.7400   -0.0000    0.0000 C   0  0  0  0  0  0  0  0  0  0  0  0
  1  2  1  0  0  0  0 
  1  3  1  0  0  0  0 
  2  4  1  0  0  0  0 
  4  5  1  0  0  0  0 
  5  6  1  0  0  0  0 
M  END
> <Name>
1-Propanamine, 3-methoxy-

> <Source>
DSSTox2DMolFile

> <Tox>
1.228

> <CAS>
5332-73-0

$$$$

  CDK

 16 17  0  0  0  0  0  0  0  0999 V2000
    5.5189    0.2025    0.0000 C   0  0  0  0  0  0  0  0  0  0  0  0
    4.5569    0.2025    0.0000 C   0  0  0  0  0  0  0  0  0  0  0  0
    6.0759    1.0633    0.0000 C   0  0  0  0  0  0  0  0  0  0  0  0
    4.0506    1.0633    0.0000 C   0  0  0  0  0  0  0  0  0  0  0  0
    5.5189    1.8734    0.0000 C   0  0  0  0  0  0  0  0  0  0  0  0
    4.5569    1.8734    0.0000 C   0  0  0  0  0  0  0  0  0  0  0  0
    3.0380    1.0633    0.0000 C   0  0  0  0  0  0  0  0  0  0  0  0
    2.0253    1.0633    0.0000 C   0  0  0  0  0  0  0  0  0  0  0  0
    3.0380    2.0253    0.0000 C   0  0  0  0  0  0  0  0  0  0  0  0
    3.0380    0.0000    0.0000 O   0  0  0  0  0  0  0  0  0  0  0  0
    1.5190    1.8734    0.0000 C   0  0  0  0  0  0  0  0  0  0  0  0
    2.0253    2.7342    0.0000 C   0  0  0  0  0  0  0  0  0  0  0  0
    0.5063    1.8734    0.0000 C   0  0  0  0  0  0  0  0  0  0  0  0
    1.5190    3.6455    0.0000 C   0  0  0  0  0  0  0  0  0  0  0  0
    0.0000    2.7342    0.0000 C   0  0  0  0  0  0  0  0  0  0  0  0
    0.5063    3.6455    0.0000 C   0  0  0  0  0  0  0  0  0  0  0  0
  2  1  2  0  0  0  0 
  1  3  1  0  0  0  0 
  4  2  1  0  0  0  0 
  3  5  2  0  0  0  0 
  6  4  2  0  0  0  0 
  4  7  1  0  0  0  0 
  5  6  1  0  0  0  0 
  7  8  1  0  0  0  0 
  7  9  1  0  0  0  0 
  7 10  1  0  0  0  0 
  8 11  1  0  0  0  0 
 11 12  2  0  0  0  0 
 13 11  1  0  0  0  0 
 12 14  1  0  0  0  0 
 15 13  2  0  0  0  0 
 14 16  2  0  0  0  0 
 16 15  1  0  0  0  0 
M  END
> <Name>
Benzeneethanol, alpha-methyl-alpha-phenyl-

> <Source>
NIST2DMolFile

> <Tox>
3.800

> <CAS>
5342-87-0

$$$$

  CDK

  7  6  0  0  0  0  0  0  0  0999 V2000
    3.2993   -0.0001    0.1913 O   0  0  0  0  0  0  0  0  0  0  0  0
    2.2189    0.0000   -0.3862 C   0  0  0  0  0  0  0  0  0  0  0  0
    0.9408    0.0001    0.3505 C   0  0  0  0  0  0  0  0  0  0  0  0
   -0.2083   -0.0001   -0.3365 C   0  0  0  0  0  0  0  0  0  0  0  0
   -1.5656    0.0000    0.3214 C   0  0  0  0  0  0  0  0  0  0  0  0
   -2.3424    1.2565   -0.0703 C   0  0  0  0  0  0  0  0  0  0  0  0
   -2.3426   -1.2565   -0.0702 C   0  0  0  0  0  0  0  0  0  0  0  0
  1  2  2  0  0  0  0 
  3  2  1  0  0  0  0 
  4  3  2  0  0  0  0 
  5  4  1  0  0  0  0 
  5  6  1  0  0  0  0 
  5  7  1  0  0  0  0 
M  END
> <Name>
(E)-4-methylpent-2-enal

> <Source>
Chemidplus3DMolFile

> <Tox>
3.820

> <CAS>
5362-56-1

$$$$

  CDK

 14 14  0  0  0  0  0  0  0  0999 V2000
    0.0004   -2.4190   -0.2251 N   0  0  0  0  0  0  0  0  0  0  0  0
   -0.0001   -1.0611   -0.0632 C   0  0  0  0  0  0  0  0  0  0  0  0
   -1.2316   -0.3273   -0.0149 C   0  0  0  0  0  0  0  0  0  0  0  0
    1.2315   -0.3273   -0.0148 C   0  0  0  0  0  0  0  0  0  0  0  0
   -1.2091    1.0692   -0.0038 C   0  0  0  0  0  0  0  0  0  0  0  0
   -2.5480   -1.0123    0.0382 N   0  0  0  0  0  0  0  0  0  0  0  0
    1.2089    1.0692   -0.0036 C   0  0  0  0  0  0  0  0  0  0  0  0
    2.5479   -1.0119    0.0384 N   0  0  0  0  0  0  0  0  0  0  0  0
   -0.0001    1.7534   -0.0122 C   0  0  0  0  0  0  0  0  0  0  0  0
   -3.5737   -0.3685    0.0524 O   0  0  0  0  0  0  0  0  0  0  0  0
   -2.5786   -2.2368    0.0756 O   0  0  0  0  0  0  0  0  0  0  0  0
    2.5787   -2.2364    0.0775 O   0  0  0  0  0  0  0  0  0  0  0  0
    3.5738   -0.3684    0.0508 O   0  0  0  0  0  0  0  0  0  0  0  0
   -0.0001    3.4408   -0.0138 Cl  0  0  0  0  0  0  0  0  0  0  0  0
  1  2  1  0  0  0  0 
  2  3  1  0  0  0  0 
  2  4  2  0  0  0  0 
  3  5  2  0  0  0  0 
  3  6  1  0  0  0  0 
  7  4  1  0  0  0  0 
  4  8  1  0  0  0  0 
  5  9  1  0  0  0  0 
  6 10  2  0  0  0  0 
  6 11  1  0  0  0  0 
  9  7  2  0  0  0  0 
  8 12  2  0  0  0  0 
  8 13  1  0  0  0  0 
  9 14  1  0  0  0  0 
M  CHG  1   6   1
M  CHG  1   8   1
M  CHG  1  11  -1
M  CHG  1  13  -1
M  END
> <Name>
Aniline, 4-chloro-2,6-dinitro- (8CI)

> <Source>
DougDB3DMolFile

> <Tox>
4.150

> <CAS>
5388-62-5

$$$$

  CDK

  6  5  0  0  0  0  0  0  0  0999 V2000
    0.0000    0.9176    0.0000 C   0  0  0  0  0  0  0  0  0  0  0  0
    0.8666    0.4588    0.0000 C   0  0  0  0  0  0  0  0  0  0  0  0
    1.8351    0.0000    0.0000 C   0  0  0  0  0  0  0  0  0  0  0  0
    2.6507    0.5098    0.0000 C   0  0  0  0  0  0  0  0  0  0  0  0
    3.5173    0.0510    0.0000 C   0  0  0  0  0  0  0  0  0  0  0  0
    4.3839    0.5607    0.0000 O   0  0  0  0  0  0  0  0  0  0  0  0
  1  2  3  0  0  0  0 
  2  3  1  0  0  0  0 
  3  4  1  0  0  0  0 
  4  5  1  0  0  0  0 
  5  6  1  0  0  0  0 
M  END
> <Name>
Pent-4-yn-1-ol

> <Source>
NIST2DMolFile

> <Tox>
1.580

> <CAS>
5390-04-5

$$$$

  CDK

  8  7  0  0  0  0  0  0  0  0999 V2000
    0.0000    0.0000    0.0000 C   0  0  0  0  0  0  0  0  0  0  0  0
    1.1800    0.5600    0.8200 C   0  0  0  0  0  0  0  0  0  0  0  0
    2.4800    0.5800    0.0400 C   0  0  0  0  0  0  0  0  0  0  0  0
    2.9400   -0.7400   -0.1600 O   0  0  0  0  0  0  0  0  0  0  0  0
    2.4600   -1.2800   -1.2800 C   0  0  0  0  0  0  0  0  0  0  0  0
    1.7400   -0.7000   -2.0600 O   0  0  0  0  0  0  0  0  0  0  0  0
    2.9000   -2.7000   -1.5400 C   0  0  0  0  0  0  0  0  0  0  0  0
    4.2800   -3.1200   -0.5000 Cl  0  0  0  0  0  0  0  0  0  0  0  0
  1  2  1  0  0  0  0 
  2  3  1  0  0  0  0 
  3  4  1  0  0  0  0 
  4  5  1  0  0  0  0 
  5  6  2  0  0  0  0 
  5  7  1  0  0  0  0 
  8  7  1  0  0  0  0 
M  END
> <Name>
propyl 2-chloroacetate

> <Source>
NIH3DMolFile

> <Tox>
4.180

> <CAS>
5396-24-7

$$$$

  CDK

 15 15  0  0  0  0  0  0  0  0999 V2000
    3.0457   -0.4362   -0.0003 O   0  0  0  0  0  0  0  0  0  0  0  0
    2.3235    0.7259   -0.0007 C   0  0  0  0  0  0  0  0  0  0  0  0
    4.4719   -0.3117    0.0008 C   0  0  0  0  0  0  0  0  0  0  0  0
    2.8302    1.8556   -0.0003 O   0  0  0  0  0  0  0  0  0  0  0  0
    0.8925    0.4662   -0.0004 C   0  0  0  0  0  0  0  0  0  0  0  0
    5.0877   -1.6946    0.0011 C   0  0  0  0  0  0  0  0  0  0  0  0
   -0.0093    1.5301    0.0004 C   0  0  0  0  0  0  0  0  0  0  0  0
    0.4221   -0.8470   -0.0013 C   0  0  0  0  0  0  0  0  0  0  0  0
   -1.3818    1.2809    0.0005 C   0  0  0  0  0  0  0  0  0  0  0  0
   -0.9503   -1.0963   -0.0014 C   0  0  0  0  0  0  0  0  0  0  0  0
   -1.8070   -0.0240   -0.0006 C   0  0  0  0  0  0  0  0  0  0  0  0
   -3.3200   -0.2984    0.0003 C   0  0  0  0  0  0  0  0  0  0  0  0
   -3.9618    0.3255   -1.2578 C   0  0  0  0  0  0  0  0  0  0  0  0
   -3.9606    0.3249    1.2594 C   0  0  0  0  0  0  0  0  0  0  0  0
   -3.6828   -1.8008    0.0002 C   0  0  0  0  0  0  0  0  0  0  0  0
  1  2  1  0  0  0  0 
  1  3  1  0  0  0  0 
  4  2  2  0  0  0  0 
  5  2  1  0  0  0  0 
  3  6  1  0  0  0  0 
  7  5  2  0  0  0  0 
  8  5  1  0  0  0  0 
  9  7  1  0  0  0  0 
 10  8  2  0  0  0  0 
 11  9  2  0  0  0  0 
 11 10  1  0  0  0  0 
 12 11  1  0  0  0  0 
 12 13  1  0  0  0  0 
 12 14  1  0  0  0  0 
 12 15  1  0  0  0  0 
M  END
> <Name>
ethyl 4-tert-butylbenzoate

> <Source>
Chemidplus3DMolFile

> <Tox>
4.420

> <CAS>
5406-57-5

$$$$

  CDK

  7  6  0  0  0  0  0  0  0  0999 V2000
    0.0000    0.0000    0.0000 Br  0  0  0  0  0  0  0  0  0  0  0  0
    0.9059    0.5033    0.0000 C   0  0  0  0  0  0  0  0  0  0  0  0
    1.7615    0.0000    0.0000 C   0  0  0  0  0  0  0  0  0  0  0  0
    2.6673    0.5033    0.0000 C   0  0  0  0  0  0  0  0  0  0  0  0
    3.4726    0.0000    0.0000 C   0  0  0  0  0  0  0  0  0  0  0  0
    4.3281    0.5033    0.0000 C   0  0  0  0  0  0  0  0  0  0  0  0
    5.1837    1.0065    0.0000 N   0  0  0  0  0  0  0  0  0  0  0  0
  1  2  1  0  0  0  0 
  2  3  1  0  0  0  0 
  3  4  1  0  0  0  0 
  4  5  1  0  0  0  0 
  5  6  1  0  0  0  0 
  6  7  3  0  0  0  0 
M  END
> <Name>
5-Bromopentanenitrile

> <Source>
NIST2DMolFile

> <Tox>
2.785

> <CAS>
5414-21-1

$$$$

  CDK

 11 11  0  0  0  0  0  0  0  0999 V2000
    0.0000    3.0095    0.0000 C   0  0  0  0  0  0  0  0  0  0  0  0
    0.8671    2.4994    0.0000 C   0  0  0  0  0  0  0  0  0  0  0  0
    1.7343    3.0095    0.0000 C   0  0  0  0  0  0  0  0  0  0  0  0
    0.8671    1.5812    0.0000 C   0  0  0  0  0  0  0  0  0  0  0  0
    2.6014    2.4994    0.0000 C   0  0  0  0  0  0  0  0  0  0  0  0
    1.7343    1.0712    0.0000 C   0  0  0  0  0  0  0  0  0  0  0  0
    0.0000    1.0712    0.0000 O   0  0  0  0  0  0  0  0  0  0  0  0
    2.6014    1.5812    0.0000 C   0  0  0  0  0  0  0  0  0  0  0  0
    3.4685    1.0712    0.0000 N   0  0  0  0  0  0  0  0  0  0  0  0
    4.3867    1.5812    0.0000 O   0  0  0  0  0  0  0  0  0  0  0  0
    3.4685    0.0000    0.0000 O   0  0  0  0  0  0  0  0  0  0  0  0
  1  2  1  0  0  0  0 
  2  3  2  0  0  0  0 
  4  2  1  0  0  0  0 
  3  5  1  0  0  0  0 
  6  4  2  0  0  0  0 
  4  7  1  0  0  0  0 
  5  8  2  0  0  0  0 
  8  6  1  0  0  0  0 
  8  9  1  0  0  0  0 
  9 10  2  0  0  0  0 
  9 11  2  0  0  0  0 
M  END
> <Name>
Phenol, 2-methyl-5-nitro-

> <Source>
NIST2DMolFile

> <Tox>
3.660

> <CAS>
5428-54-6

$$$$

  CDK

  7  6  0  0  0  0  0  0  0  0999 V2000
   -2.4418   -0.9002   -0.1985 Br  0  0  0  0  0  0  0  0  0  0  0  0
   -0.9933    0.3919   -0.3966 C   0  0  0  0  0  0  0  0  0  0  0  0
   -1.2698    1.5947    0.4819 C   0  0  0  0  0  0  0  0  0  0  0  0
    0.3024   -0.2865   -0.0152 C   0  0  0  0  0  0  0  0  0  0  0  0
    1.3386    0.5618   -0.2970 O   0  0  0  0  0  0  0  0  0  0  0  0
    0.4167   -1.4147    0.4441 O   0  0  0  0  0  0  0  0  0  0  0  0
    2.6471    0.0529   -0.0187 C   0  0  0  0  0  0  0  0  0  0  0  0
  1  2  1  0  0  0  0 
  2  3  1  0  0  0  0 
  2  4  1  0  0  0  0 
  5  4  1  0  0  0  0 
  6  4  2  0  0  0  0 
  5  7  1  0  0  0  0 
M  END
> <Name>
methyl 2-bromopropanoate

> <Source>
Chemidplus3DMolFile

> <Tox>
4.180

> <CAS>
5445-17-0

$$$$

  CDK

 13 12  0  0  0  0  0  0  0  0999 V2000
    0.0000    1.0677    0.0000 C   0  0  0  0  0  0  0  0  0  0  0  0
    0.9152    1.5253    0.0000 C   0  0  0  0  0  0  0  0  0  0  0  0
    1.7795    1.0677    0.0000 C   0  0  0  0  0  0  0  0  0  0  0  0
    2.6947    1.5253    0.0000 C   0  0  0  0  0  0  0  0  0  0  0  0
    3.5590    1.0677    0.0000 C   0  0  0  0  0  0  0  0  0  0  0  0
    4.4233    1.5253    0.0000 C   0  0  0  0  0  0  0  0  0  0  0  0
    5.2877    1.0677    0.0000 C   0  0  0  0  0  0  0  0  0  0  0  0
    6.2028    1.5253    0.0000 C   0  0  0  0  0  0  0  0  0  0  0  0
    5.2877    0.0000    0.0000 Br  0  0  0  0  0  0  0  0  0  0  0  0
    7.0672    1.0677    0.0000 O   0  0  0  0  0  0  0  0  0  0  0  0
    6.2028    2.5421    0.0000 O   0  0  0  0  0  0  0  0  0  0  0  0
    7.9315    1.5253    0.0000 C   0  0  0  0  0  0  0  0  0  0  0  0
    8.7958    1.0677    0.0000 C   0  0  0  0  0  0  0  0  0  0  0  0
  1  2  1  0  0  0  0 
  2  3  1  0  0  0  0 
  3  4  1  0  0  0  0 
  4  5  1  0  0  0  0 
  5  6  1  0  0  0  0 
  6  7  1  0  0  0  0 
  7  8  1  0  0  0  0 
  7  9  1  0  0  0  0 
  8 10  1  0  0  0  0 
  8 11  2  0  0  0  0 
 10 12  1  0  0  0  0 
 12 13  1  0  0  0  0 
M  END
> <Name>
Ethyl 2-bromooctanoate

> <Source>
NIST2DMolFile

> <Tox>
4.500

> <CAS>
5445-29-4

$$$$

  CDK

 13 13  0  0  0  0  0  0  0  0999 V2000
    3.5013    0.0832   -0.0892 O   0  0  0  0  0  0  0  0  0  0  0  0
    2.1416    0.0679   -0.0311 C   0  0  0  0  0  0  0  0  0  0  0  0
    4.1710   -1.1697    0.0425 C   0  0  0  0  0  0  0  0  0  0  0  0
    1.4249    1.2582   -0.1546 C   0  0  0  0  0  0  0  0  0  0  0  0
    1.4646   -1.1382    0.1502 C   0  0  0  0  0  0  0  0  0  0  0  0
    0.0313    1.2424   -0.0969 C   0  0  0  0  0  0  0  0  0  0  0  0
    0.0711   -1.1541    0.2079 C   0  0  0  0  0  0  0  0  0  0  0  0
   -0.6508    2.4163   -0.2166 O   0  0  0  0  0  0  0  0  0  0  0  0
   -0.6455    0.0362    0.0843 C   0  0  0  0  0  0  0  0  0  0  0  0
   -2.0998   -0.0025    0.1520 C   0  0  0  0  0  0  0  0  0  0  0  0
   -2.5846   -1.1951   -0.3183 O   0  0  0  0  0  0  0  0  0  0  0  0
   -2.8168    0.9056    0.5718 O   0  0  0  0  0  0  0  0  0  0  0  0
   -4.0083   -1.3502   -0.3020 C   0  0  0  0  0  0  0  0  0  0  0  0
  1  2  1  0  0  0  0 
  1  3  1  0  0  0  0 
  2  4  2  0  0  0  0 
  2  5  1  0  0  0  0 
  6  4  1  0  0  0  0 
  7  5  2  0  0  0  0 
  8  6  1  0  0  0  0 
  9  6  2  0  0  0  0 
  9  7  1  0  0  0  0 
  9 10  1  0  0  0  0 
 11 10  1  0  0  0  0 
 12 10  2  0  0  0  0 
 11 13  1  0  0  0  0 
M  END
> <Name>
methyl 2-hydroxy-4-methoxybenzoate

> <Source>
Chemidplus3DMolFile

> <Tox>
3.620

> <CAS>
5446-02-6

$$$$

  CDK

 11 11  0  0  0  0  0  0  0  0999 V2000
   -3.0106    0.4128   -0.0006 O   0  0  0  0  0  0  0  0  0  0  0  0
   -1.6455    0.2935    0.0005 C   0  0  0  0  0  0  0  0  0  0  0  0
   -3.7590   -0.7971   -0.0002 C   0  0  0  0  0  0  0  0  0  0  0  0
   -1.1400   -0.9604    0.0004 N   0  0  0  0  0  0  0  0  0  0  0  0
   -0.8708    1.4422    0.0003 C   0  0  0  0  0  0  0  0  0  0  0  0
    0.2080   -1.0642    0.0001 C   0  0  0  0  0  0  0  0  0  0  0  0
    0.5119    1.2947    0.0000 C   0  0  0  0  0  0  0  0  0  0  0  0
    1.0695    0.0210   -0.0002 C   0  0  0  0  0  0  0  0  0  0  0  0
    2.4751   -0.1617   -0.0002 N   0  0  0  0  0  0  0  0  0  0  0  0
    3.2221    0.8481   -0.0001 O   0  0  0  0  0  0  0  0  0  0  0  0
    2.9393   -1.3289    0.0000 O   0  0  0  0  0  0  0  0  0  0  0  0
  1  2  1  0  0  0  0 
  1  3  1  0  0  0  0 
  4  2  2  0  0  0  0 
  2  5  1  0  0  0  0 
  4  6  1  0  0  0  0 
  7  5  2  0  0  0  0 
  8  6  2  0  0  0  0 
  8  7  1  0  0  0  0 
  9  8  1  0  0  0  0 
 10  9  1  0  0  0  0 
 11  9  2  0  0  0  0 
M  CHG  1   9   1
M  CHG  1  10  -1
M  END
> <Name>
2-methoxy-5-nitropyridine

> <Source>
Chemidplus3DMolFile

> <Tox>
2.990

> <CAS>
5446-92-4

$$$$

  CDK

  7  6  0  0  0  0  0  0  0  0999 V2000
    0.0000    0.0000    0.0000 Br  0  0  0  0  0  0  0  0  0  0  0  0
   -0.6200    1.7200   -0.5400 C   0  0  0  0  0  0  0  0  0  0  0  0
   -2.0800    1.7800   -0.5000 N   0  0  0  0  0  0  0  0  0  0  0  0
   -0.0600    2.7800    0.4200 C   0  0  0  0  0  0  0  0  0  0  0  0
   -0.1800    1.9600   -2.0000 C   0  0  0  0  0  0  0  0  0  0  0  0
   -2.6200    1.1800    0.4200 O   0  0  0  0  0  0  0  0  0  0  0  0
   -2.6600    2.4000   -1.3800 O   0  0  0  0  0  0  0  0  0  0  0  0
  1  2  1  0  0  0  0 
  2  3  1  0  0  0  0 
  2  4  1  0  0  0  0 
  2  5  1  0  0  0  0 
  3  6  2  0  0  0  0 
  3  7  1  0  0  0  0 
M  CHG  1   3   1
M  CHG  1   7  -1
M  END
> <Name>
2-bromo-2-nitropropane

> <Source>
NIH3DMolFile

> <Tox>
4.854

> <CAS>
5447-97-2

$$$$

  CDK

 11 11  0  0  0  0  0  0  0  0999 V2000
    2.4938    1.6795    0.0000 C   0  0  0  0  0  0  0  0  0  0  0  0
    1.4759    1.6795    0.0000 C   0  0  0  0  0  0  0  0  0  0  0  0
    2.9519    2.5956    0.0000 C   0  0  0  0  0  0  0  0  0  0  0  0
    3.0028    0.8652    0.0000 N   0  0  0  0  0  0  0  0  0  0  0  0
    0.9670    2.5956    0.0000 C   0  0  0  0  0  0  0  0  0  0  0  0
    0.9670    0.8652    0.0000 C   0  0  0  0  0  0  0  0  0  0  0  0
    2.4938    3.4608    0.0000 C   0  0  0  0  0  0  0  0  0  0  0  0
    4.0207    0.8652    0.0000 O   0  0  0  0  0  0  0  0  0  0  0  0
    2.4938    0.0000    0.0000 O   0  0  0  0  0  0  0  0  0  0  0  0
    1.4759    3.4608    0.0000 C   0  0  0  0  0  0  0  0  0  0  0  0
    0.0000    2.5956    0.0000 O   0  0  0  0  0  0  0  0  0  0  0  0
  2  1  2  0  0  0  0 
  1  3  1  0  0  0  0 
  1  4  1  0  0  0  0 
  5  2  1  0  0  0  0 
  2  6  1  0  0  0  0 
  3  7  2  0  0  0  0 
  4  8  2  0  0  0  0 
  4  9  2  0  0  0  0 
 10  5  2  0  0  0  0 
  5 11  1  0  0  0  0 
  7 10  1  0  0  0  0 
M  END
> <Name>
3-Nitro-o-cresol

> <Source>
NIST2DMolFile

> <Tox>
3.780

> <CAS>
5460-31-1

$$$$

  CDK

 10 10  0  0  0  0  0  0  0  0999 V2000
   -0.3994   -2.4447   -0.0007 Cl  0  0  0  0  0  0  0  0  0  0  0  0
    0.4076   -0.9230    0.0003 C   0  0  0  0  0  0  0  0  0  0  0  0
    1.7550   -1.0323    0.0004 N   0  0  0  0  0  0  0  0  0  0  0  0
   -0.2728    0.2840    0.0003 C   0  0  0  0  0  0  0  0  0  0  0  0
    2.4514    0.1264    0.0001 C   0  0  0  0  0  0  0  0  0  0  0  0
   -1.6912    0.3621    0.0002 N   0  0  0  0  0  0  0  0  0  0  0  0
    0.4781    1.4542   -0.0002 C   0  0  0  0  0  0  0  0  0  0  0  0
    1.8668    1.3825   -0.0003 C   0  0  0  0  0  0  0  0  0  0  0  0
   -2.2375    1.4914   -0.0002 O   0  0  0  0  0  0  0  0  0  0  0  0
   -2.3581   -0.7005    0.0002 O   0  0  0  0  0  0  0  0  0  0  0  0
  1  2  1  0  0  0  0 
  3  2  1  0  0  0  0 
  4  2  2  0  0  0  0 
  3  5  2  0  0  0  0 
  6  4  1  0  0  0  0 
  4  7  1  0  0  0  0 
  8  5  1  0  0  0  0 
  9  6  1  0  0  0  0 
 10  6  2  0  0  0  0 
  7  8  2  0  0  0  0 
M  CHG  1   6   1
M  CHG  1   9  -1
M  END
> <Name>
2-chloro-3-nitropyridine

> <Source>
Chemidplus3DMolFile

> <Tox>
3.870

> <CAS>
5470-18-8

$$$$

  CDK

 12 12  0  0  0  0  0  0  0  0999 V2000
   -4.2576    0.7473    1.1655 C   0  0  0  0  0  0  0  0  0  0  0  0
   -3.3991    0.0633    0.1330 C   0  0  0  0  0  0  0  0  0  0  0  0
   -1.9101    0.1883    0.3690 C   0  0  0  0  0  0  0  0  0  0  0  0
   -3.8836   -0.5378   -0.8063 O   0  0  0  0  0  0  0  0  0  0  0  0
   -1.0493   -0.4252   -0.7246 C   0  0  0  0  0  0  0  0  0  0  0  0
    0.4014   -0.2459   -0.4124 C   0  0  0  0  0  0  0  0  0  0  0  0
    1.0411    0.9555   -0.7291 C   0  0  0  0  0  0  0  0  0  0  0  0
    1.1240   -1.2738    0.1925 C   0  0  0  0  0  0  0  0  0  0  0  0
    2.3868    1.1377   -0.4467 C   0  0  0  0  0  0  0  0  0  0  0  0
    2.4729   -1.1130    0.4839 C   0  0  0  0  0  0  0  0  0  0  0  0
    3.1017    0.0965    0.1624 C   0  0  0  0  0  0  0  0  0  0  0  0
    4.4242    0.3405    0.4144 O   0  0  0  0  0  0  0  0  0  0  0  0
  1  2  1  0  0  0  0 
  2  3  1  0  0  0  0 
  2  4  2  0  0  0  0 
  3  5  1  0  0  0  0 
  5  6  1  0  0  0  0 
  6  7  1  0  0  0  0 
  6  8  2  0  0  0  0 
  7  9  2  0  0  0  0 
 10  8  1  0  0  0  0 
  9 11  1  0  0  0  0 
 11 10  2  0  0  0  0 
 11 12  1  0  0  0  0 
M  END
> <Name>
2-Butanone, 4-(4-hydroxyphenyl)-

> <Source>
DougDB3DMolFile

> <Tox>
2.500

> <CAS>
5471-51-2

$$$$

  CDK

 11 11  0  0  0  0  0  0  0  0999 V2000
    0.5009    1.0018    0.0000 C   0  0  0  0  0  0  0  0  0  0  0  0
    1.5527    1.0018    0.0000 S   0  0  0  0  0  0  0  0  0  0  0  0
    0.0000    0.1503    0.0000 C   0  0  0  0  0  0  0  0  0  0  0  0
    1.5527    2.0035    0.0000 O   0  0  0  0  0  0  0  0  0  0  0  0
    1.5527    0.0000    0.0000 O   0  0  0  0  0  0  0  0  0  0  0  0
    2.5545    1.0018    0.0000 C   0  0  0  0  0  0  0  0  0  0  0  0
    3.0553    1.8532    0.0000 C   0  0  0  0  0  0  0  0  0  0  0  0
    3.0553    0.1503    0.0000 C   0  0  0  0  0  0  0  0  0  0  0  0
    4.0571    1.8532    0.0000 C   0  0  0  0  0  0  0  0  0  0  0  0
    4.0571    0.1503    0.0000 C   0  0  0  0  0  0  0  0  0  0  0  0
    4.5580    1.0018    0.0000 C   0  0  0  0  0  0  0  0  0  0  0  0
  1  2  1  0  0  0  0 
  1  3  2  0  0  0  0 
  2  4  2  0  0  0  0 
  2  5  2  0  0  0  0 
  2  6  1  0  0  0  0 
  7  6  2  0  0  0  0 
  6  8  1  0  0  0  0 
  9  7  1  0  0  0  0 
  8 10  2  0  0  0  0 
 11  9  2  0  0  0  0 
 10 11  1  0  0  0  0 
M  END
> <Name>
Phenyl vinyl sulphone

> <Source>
NIST2DMolFile

> <Tox>
4.280

> <CAS>
5535-48-8

$$$$

  CDK

  6  5  0  0  0  0  0  0  0  0999 V2000
    4.3191    0.5524    0.0000 O   0  0  0  0  0  0  0  0  0  0  0  0
    3.4151    0.0502    0.0000 C   0  0  0  0  0  0  0  0  0  0  0  0
    2.5613    0.5524    0.0000 C   0  0  0  0  0  0  0  0  0  0  0  0
    1.7578    0.0000    0.0000 C   0  0  0  0  0  0  0  0  0  0  0  0
    0.8538    0.5022    0.0000 C   0  0  0  0  0  0  0  0  0  0  0  0
    0.0000    0.9542    0.0000 C   0  0  0  0  0  0  0  0  0  0  0  0
  1  2  1  0  0  0  0 
  2  3  1  0  0  0  0 
  4  3  2  0  0  0  0 
  4  5  1  0  0  0  0 
  5  6  3  0  0  0  0 
M  END
> <Name>
Pent-2-en-4-yn-1-ol

> <Source>
NIST2DMolFile

> <Tox>
2.445

> <CAS>
5557-88-0

$$$$

  CDK

  9  9  0  0  0  0  0  0  0  0999 V2000
    0.0000   -2.3037    0.0000 C   0  0  0  0  0  0  0  0  0  0  0  0
    1.3315   -2.3037    0.0000 C   0  0  0  0  0  0  0  0  0  0  0  0
    1.9950   -1.1518    0.0000 C   0  0  0  0  0  0  0  0  0  0  0  0
    1.9950   -3.4555    0.0000 N   0  0  0  0  0  0  0  0  0  0  0  0
    3.3265   -1.1518    0.0000 C   0  0  0  0  0  0  0  0  0  0  0  0
    3.3265   -3.4555    0.0000 C   0  0  0  0  0  0  0  0  0  0  0  0
    3.9899   -0.0000    0.0000 Cl  0  0  0  0  0  0  0  0  0  0  0  0
    3.9899   -2.3037    0.0000 N   0  0  0  0  0  0  0  0  0  0  0  0
    3.9899   -4.6073    0.0000 N   0  0  0  0  0  0  0  0  0  0  0  0
  1  2  1  0  0  0  0 
  2  3  2  0  0  0  0 
  2  4  1  0  0  0  0 
  3  5  1  0  0  0  0 
  6  4  2  0  0  0  0 
  5  7  1  0  0  0  0 
  5  8  2  0  0  0  0 
  8  6  1  0  0  0  0 
  6  9  1  0  0  0  0 
M  END
> <Name>
2-Pyrimidinamine, 4-chloro-6-methyl- (9CI)

> <Source>
DSSTox2DMolFile

> <Tox>
2.530

> <CAS>
5600-21-5

$$$$

  CDK

 10 10  0  0  0  0  0  0  0  0999 V2000
    4.2000    1.2124    0.0000 S   0  0  0  0  0  0  0  0  0  0  0  0
    4.9000    0.0000    0.0000 C   0  0  0  0  0  0  0  0  0  0  0  0
    2.8000    1.2124    0.0000 C   0  0  0  0  0  0  0  0  0  0  0  0
    6.3000    0.0000    0.0000 C   0  0  0  0  0  0  0  0  0  0  0  0
    2.1000    0.0000    0.0000 C   0  0  0  0  0  0  0  0  0  0  0  0
    2.1000    2.4249    0.0000 C   0  0  0  0  0  0  0  0  0  0  0  0
    7.7000    0.0000    0.0000 C   0  0  0  0  0  0  0  0  0  0  0  0
    0.7000    0.0000    0.0000 C   0  0  0  0  0  0  0  0  0  0  0  0
    0.7000    2.4249    0.0000 C   0  0  0  0  0  0  0  0  0  0  0  0
    0.0000    1.2124    0.0000 C   0  0  0  0  0  0  0  0  0  0  0  0
  1  2  1  0  0  0  0 
  1  3  1  0  0  0  0 
  2  4  1  0  0  0  0 
  3  5  1  0  0  0  0 
  3  6  2  0  0  0  0 
  4  7  3  0  0  0  0 
  5  8  2  0  0  0  0 
  9  6  1  0  0  0  0 
  8 10  1  0  0  0  0 
 10  9  2  0  0  0  0 
M  END
> <Name>
 Sulfide, phenyl 2-propynyl (6CI,7CI,8CI)

> <Source>
Name2DMolFile

> <Tox>
3.540

> <CAS>
5651-88-7

$$$$

  CDK

 14 15  0  0  0  0  0  0  0  0999 V2000
   -1.6591    0.5736   -0.1741 O   0  0  0  0  0  0  0  0  0  0  0  0
   -0.4959   -0.1774   -0.4755 C   0  0  0  0  0  0  0  0  0  0  0  0
   -2.8322   -0.1313   -0.1243 C   0  0  0  0  0  0  0  0  0  0  0  0
    0.8004    0.6872   -0.4352 C   0  0  0  0  0  0  0  0  0  0  0  0
   -0.2199   -1.2555    0.5891 C   0  0  0  0  0  0  0  0  0  0  0  0
   -2.9550   -1.3336   -0.3152 O   0  0  0  0  0  0  0  0  0  0  0  0
   -3.9704    0.7871    0.2031 C   0  0  0  0  0  0  0  0  0  0  0  0
    1.9104   -0.3863   -0.2211 C   0  0  0  0  0  0  0  0  0  0  0  0
    0.8111    1.4649    0.9114 C   0  0  0  0  0  0  0  0  0  0  0  0
    0.9447    1.6020   -1.6368 C   0  0  0  0  0  0  0  0  0  0  0  0
    1.2119   -0.9076    1.0632 C   0  0  0  0  0  0  0  0  0  0  0  0
    2.0381   -1.4403   -1.3398 C   0  0  0  0  0  0  0  0  0  0  0  0
    3.3327    0.1607    0.0131 C   0  0  0  0  0  0  0  0  0  0  0  0
    1.0832    0.3565    1.9424 C   0  0  0  0  0  0  0  0  0  0  0  0
  1  2  1  0  0  0  0 
  1  3  1  0  0  0  0 
  4  2  1  0  0  0  0 
  2  5  1  0  0  0  0 
  6  3  2  0  0  0  0 
  3  7  1  0  0  0  0 
  4  8  1  0  0  0  0 
  4  9  1  0  0  0  0 
  4 10  1  0  0  0  0 
 11  5  1  0  0  0  0 
  8 11  1  0  0  0  0 
  8 12  1  0  0  0  0 
  8 13  1  0  0  0  0 
  9 14  1  0  0  0  0 
 11 14  1  0  0  0  0 
M  END
> <Name>
[(1S,3R,4S)-4,7,7-trimethyl-3-bicyclo[2.2.1]heptanyl] ethanoate

> <Source>
Chemidplus3DMolFile

> <Tox>
3.680

> <CAS>
5655-61-8

$$$$

  CDK

 10  9  0  0  0  0  0  0  0  0999 V2000
    0.8634    1.9300    0.0000 C   0  0  0  0  0  0  0  0  0  0  0  0
    1.7776    2.4379    0.0000 C   0  0  0  0  0  0  0  0  0  0  0  0
    0.0000    2.4379    0.0000 C   0  0  0  0  0  0  0  0  0  0  0  0
    2.6411    1.9300    0.0000 C   0  0  0  0  0  0  0  0  0  0  0  0
    3.5045    2.4379    0.0000 C   0  0  0  0  0  0  0  0  0  0  0  0
    4.3171    1.9808    0.0000 C   0  0  0  0  0  0  0  0  0  0  0  0
    5.1806    1.4729    0.0000 C   0  0  0  0  0  0  0  0  0  0  0  0
    6.0948    1.0158    0.0000 C   0  0  0  0  0  0  0  0  0  0  0  0
    6.9582    1.4729    0.0000 O   0  0  0  0  0  0  0  0  0  0  0  0
    6.0948    0.0000    0.0000 O   0  0  0  0  0  0  0  0  0  0  0  0
  1  2  1  0  0  0  0 
  1  3  1  0  0  0  0 
  2  4  1  0  0  0  0 
  4  5  1  0  0  0  0 
  5  6  1  0  0  0  0 
  6  7  3  0  0  0  0 
  7  8  1  0  0  0  0 
  8  9  1  0  0  0  0 
  8 10  2  0  0  0  0 
M  END
> <Name>
Oct-2-ynoic acid

> <Source>
NIST2DMolFile

> <Tox>
2.943

> <CAS>
5663-96-7

$$$$

  CDK

  8  7  0  0  0  0  0  0  0  0999 V2000
    0.0000    0.9563    0.0000 C   0  0  0  0  0  0  0  0  0  0  0  0
    0.9060    1.4596    0.0000 C   0  0  0  0  0  0  0  0  0  0  0  0
    1.7616    0.9563    0.0000 C   0  0  0  0  0  0  0  0  0  0  0  0
    2.6173    1.4596    0.0000 C   0  0  0  0  0  0  0  0  0  0  0  0
    3.4729    0.9563    0.0000 C   0  0  0  0  0  0  0  0  0  0  0  0
    4.3286    1.4596    0.0000 C   0  0  0  0  0  0  0  0  0  0  0  0
    3.4729    0.0000    0.0000 N   0  0  0  0  0  0  0  0  0  0  0  0
    5.2346    0.9563    0.0000 O   0  0  0  0  0  0  0  0  0  0  0  0
  1  2  1  0  0  0  0 
  2  3  1  0  0  0  0 
  3  4  1  0  0  0  0 
  4  5  1  0  0  0  0 
  5  6  1  0  0  0  0 
  5  7  1  0  0  0  0 
  6  8  1  0  0  0  0 
M  END
> <Name>
1-Hexanol, 2-amino-

> <Source>
NIST2DMolFile

> <Tox>
2.415

> <CAS>
5665-74-7

$$$$

  CDK

  9  9  0  0  0  0  0  0  0  0999 V2000
    2.6574   -2.3037    0.0000 N   0  0  0  0  0  0  0  0  0  0  0  0
    1.9965   -1.1542    0.0000 C   0  0  0  0  0  0  0  0  0  0  0  0
    3.9884   -2.3037    0.0000 C   0  0  0  0  0  0  0  0  0  0  0  0
    0.6655   -1.1542    0.0000 N   0  0  0  0  0  0  0  0  0  0  0  0
    2.6574   -0.0000    0.0000 C   0  0  0  0  0  0  0  0  0  0  0  0
    4.6539   -1.1542    0.0000 C   0  0  0  0  0  0  0  0  0  0  0  0
    0.0000   -2.3037    0.0000 C   0  0  0  0  0  0  0  0  0  0  0  0
    0.0000   -0.0000    0.0000 C   0  0  0  0  0  0  0  0  0  0  0  0
    3.9884   -0.0000    0.0000 C   0  0  0  0  0  0  0  0  0  0  0  0
  1  2  2  0  0  0  0 
  1  3  1  0  0  0  0 
  2  4  1  0  0  0  0 
  2  5  1  0  0  0  0 
  6  3  2  0  0  0  0 
  4  7  1  0  0  0  0 
  4  8  1  0  0  0  0 
  5  9  2  0  0  0  0 
  9  6  1  0  0  0  0 
M  END
> <Name>
2-Pyridinamine, N,N-dimethyl- (9CI)

> <Source>
DSSTox2DMolFile

> <Tox>
2.450

> <CAS>
5683-33-0

$$$$

  CDK

 14 15  0  0  0  0  0  0  0  0999 V2000
    9.4494    1.0131    1.7333 C   0  0  0  0  0  0  0  0  0  0  0  0
    8.0809    1.2487    1.7444 C   0  0  0  0  0  0  0  0  0  0  0  0
   10.3378    2.0598    1.5102 C   0  0  0  0  0  0  0  0  0  0  0  0
    7.5783    2.5369    1.5278 C   0  0  0  0  0  0  0  0  0  0  0  0
    9.8499    3.3442    1.2939 C   0  0  0  0  0  0  0  0  0  0  0  0
    8.4816    3.5816    1.3013 C   0  0  0  0  0  0  0  0  0  0  0  0
    6.1308    2.7875    1.5384 C   0  0  0  0  0  0  0  0  0  0  0  0
    5.2292    1.7543    1.8190 C   0  0  0  0  0  0  0  0  0  0  0  0
    5.6241    4.0627    1.2658 C   0  0  0  0  0  0  0  0  0  0  0  0
    3.8635    1.9926    1.8303 C   0  0  0  0  0  0  0  0  0  0  0  0
    4.2567    4.3016    1.2754 C   0  0  0  0  0  0  0  0  0  0  0  0
    3.3635    3.2682    1.5618 C   0  0  0  0  0  0  0  0  0  0  0  0
    1.8935    3.5353    1.6108 C   0  0  0  0  0  0  0  0  0  0  0  0
    1.0661    2.3812    1.0860 C   0  0  0  0  0  0  0  0  0  0  0  0
  1  2  2  0  0  0  0 
  3  1  1  0  0  0  0 
  2  4  1  0  0  0  0 
  5  3  2  0  0  0  0 
  4  6  2  0  0  0  0 
  4  7  1  0  0  0  0 
  6  5  1  0  0  0  0 
  7  8  2  0  0  0  0 
  9  7  1  0  0  0  0 
  8 10  1  0  0  0  0 
 11  9  2  0  0  0  0 
 10 12  2  0  0  0  0 
 12 11  1  0  0  0  0 
 12 13  1  0  0  0  0 
 13 14  1  0  0  0  0 
M  END
> <Name>
Biphenyl, 4-ethyl- (8CI)

> <Source>
NIST3DMolFile

> <Tox>
4.970

> <CAS>
5707-44-8

$$$$

  CDK

 13 13  0  0  0  0  0  0  0  0999 V2000
    5.2184    1.4910    0.0000 C   0  0  0  0  0  0  0  0  0  0  0  0
    4.3735    2.0377    0.0000 O   0  0  0  0  0  0  0  0  0  0  0  0
    6.1130    1.9383    0.0000 C   0  0  0  0  0  0  0  0  0  0  0  0
    3.4789    1.5407    0.0000 C   0  0  0  0  0  0  0  0  0  0  0  0
    6.9578    1.4413    0.0000 C   0  0  0  0  0  0  0  0  0  0  0  0
    2.6340    2.0377    0.0000 C   0  0  0  0  0  0  0  0  0  0  0  0
    3.4789    0.4970    0.0000 C   0  0  0  0  0  0  0  0  0  0  0  0
    7.8027    1.9383    0.0000 C   0  0  0  0  0  0  0  0  0  0  0  0
    1.7892    1.5407    0.0000 C   0  0  0  0  0  0  0  0  0  0  0  0
    2.6340    0.0000    0.0000 C   0  0  0  0  0  0  0  0  0  0  0  0
    1.7892    0.5467    0.0000 C   0  0  0  0  0  0  0  0  0  0  0  0
    0.8449    0.0994    0.0000 C   0  0  0  0  0  0  0  0  0  0  0  0
    0.0000    0.5964    0.0000 O   0  0  0  0  0  0  0  0  0  0  0  0
  1  2  1  0  0  0  0 
  1  3  1  0  0  0  0 
  2  4  1  0  0  0  0 
  3  5  1  0  0  0  0 
  6  4  2  0  0  0  0 
  4  7  1  0  0  0  0 
  5  8  1  0  0  0  0 
  9  6  1  0  0  0  0 
  7 10  2  0  0  0  0 
 11  9  2  0  0  0  0 
 10 11  1  0  0  0  0 
 11 12  1  0  0  0  0 
 12 13  2  0  0  0  0 
M  END
> <Name>
Benzaldehyde, 4-butoxy-

> <Source>
NIST2DMolFile

> <Tox>
3.716

> <CAS>
5736-88-9

$$$$

  CDK

 14 14  0  0  0  0  0  0  0  0999 V2000
    5.2239    1.5423    0.0000 C   0  0  0  0  0  0  0  0  0  0  0  0
    4.3781    1.9901    0.0000 O   0  0  0  0  0  0  0  0  0  0  0  0
    6.0697    2.0398    0.0000 C   0  0  0  0  0  0  0  0  0  0  0  0
    3.5324    1.4925    0.0000 C   0  0  0  0  0  0  0  0  0  0  0  0
    6.9652    1.5423    0.0000 C   0  0  0  0  0  0  0  0  0  0  0  0
    2.6368    1.9901    0.0000 C   0  0  0  0  0  0  0  0  0  0  0  0
    3.5324    0.4975    0.0000 C   0  0  0  0  0  0  0  0  0  0  0  0
    7.8110    2.0398    0.0000 C   0  0  0  0  0  0  0  0  0  0  0  0
    1.7911    1.4925    0.0000 C   0  0  0  0  0  0  0  0  0  0  0  0
    2.6368    0.0000    0.0000 C   0  0  0  0  0  0  0  0  0  0  0  0
    8.7065    1.5423    0.0000 C   0  0  0  0  0  0  0  0  0  0  0  0
    1.7911    0.4975    0.0000 C   0  0  0  0  0  0  0  0  0  0  0  0
    0.8955    0.0000    0.0000 C   0  0  0  0  0  0  0  0  0  0  0  0
    0.0000    0.4975    0.0000 O   0  0  0  0  0  0  0  0  0  0  0  0
  1  2  1  0  0  0  0 
  1  3  1  0  0  0  0 
  2  4  1  0  0  0  0 
  3  5  1  0  0  0  0 
  6  4  2  0  0  0  0 
  4  7  1  0  0  0  0 
  5  8  1  0  0  0  0 
  9  6  1  0  0  0  0 
  7 10  2  0  0  0  0 
  8 11  1  0  0  0  0 
 12  9  2  0  0  0  0 
 10 12  1  0  0  0  0 
 12 13  1  0  0  0  0 
 13 14  2  0  0  0  0 
M  END
> <Name>
Benzaldehyde, 4-(pentyloxy)-

> <Source>
NIST2DMolFile

> <Tox>
4.180

> <CAS>
5736-91-4

$$$$

  CDK

 14 13  0  0  0  0  0  0  0  0999 V2000
    1.1311    1.7809   -0.4565 O   0  0  0  0  0  0  0  0  0  0  0  0
    1.2028    0.4848    0.1316 C   0  0  0  0  0  0  0  0  0  0  0  0
   -0.0656   -0.2913   -0.2464 C   0  0  0  0  0  0  0  0  0  0  0  0
    2.4551   -0.2469   -0.3700 C   0  0  0  0  0  0  0  0  0  0  0  0
   -1.3423    0.4291    0.2051 C   0  0  0  0  0  0  0  0  0  0  0  0
    3.7320    0.2041    0.3477 C   0  0  0  0  0  0  0  0  0  0  0  0
   -2.5893   -0.3865   -0.1461 C   0  0  0  0  0  0  0  0  0  0  0  0
    4.9622   -0.5203   -0.2035 C   0  0  0  0  0  0  0  0  0  0  0  0
   -3.9008    0.2971    0.2546 C   0  0  0  0  0  0  0  0  0  0  0  0
    6.2421   -0.0442    0.4833 C   0  0  0  0  0  0  0  0  0  0  0  0
   -5.1443   -0.5320   -0.0779 C   0  0  0  0  0  0  0  0  0  0  0  0
    7.4701   -0.7376   -0.0847 C   0  0  0  0  0  0  0  0  0  0  0  0
   -6.4557    0.1835    0.2581 C   0  0  0  0  0  0  0  0  0  0  0  0
   -7.6972   -0.6207   -0.0954 C   0  0  0  0  0  0  0  0  0  0  0  0
  1  2  1  0  0  0  0 
  2  3  1  0  0  0  0 
  2  4  1  0  0  0  0 
  3  5  1  0  0  0  0 
  4  6  1  0  0  0  0 
  5  7  1  0  0  0  0 
  6  8  1  0  0  0  0 
  7  9  1  0  0  0  0 
  8 10  1  0  0  0  0 
  9 11  1  0  0  0  0 
 10 12  1  0  0  0  0 
 11 13  1  0  0  0  0 
 13 14  1  0  0  0  0 
M  END
> <Name>
tridecan-6-ol

> <Source>
Chemidplus3DMolFile

> <Tox>
5.240

> <CAS>
5770-03-6

$$$$

  CDK

 12 12  0  0  0  0  0  0  0  0999 V2000
    0.8578    1.4634    0.0000 C   0  0  0  0  0  0  0  0  0  0  0  0
    1.7157    1.9680    0.0000 C   0  0  0  0  0  0  0  0  0  0  0  0
    0.8578    0.5046    0.0000 C   0  0  0  0  0  0  0  0  0  0  0  0
    2.6240    1.4634    0.0000 C   0  0  0  0  0  0  0  0  0  0  0  0
    0.0000    0.0000    0.0000 Br  0  0  0  0  0  0  0  0  0  0  0  0
    1.7157    0.0000    0.0000 C   0  0  0  0  0  0  0  0  0  0  0  0
    2.6240    0.5046    0.0000 C   0  0  0  0  0  0  0  0  0  0  0  0
    3.4314    2.0185    0.0000 C   0  0  0  0  0  0  0  0  0  0  0  0
    4.2892    1.5138    0.0000 O   0  0  0  0  0  0  0  0  0  0  0  0
    3.4314    3.0277    0.0000 O   0  0  0  0  0  0  0  0  0  0  0  0
    5.1975    2.0185    0.0000 C   0  0  0  0  0  0  0  0  0  0  0  0
    6.0554    1.5138    0.0000 C   0  0  0  0  0  0  0  0  0  0  0  0
  1  2  2  0  0  0  0 
  3  1  1  0  0  0  0 
  2  4  1  0  0  0  0 
  3  5  1  0  0  0  0 
  6  3  2  0  0  0  0 
  4  7  2  0  0  0  0 
  4  8  1  0  0  0  0 
  7  6  1  0  0  0  0 
  8  9  1  0  0  0  0 
  8 10  2  0  0  0  0 
  9 11  1  0  0  0  0 
 11 12  1  0  0  0  0 
M  END
> <Name>
Benzoic acid, p-bromo-, ethyl ester (8CI)

> <Source>
NIST2DMolFile

> <Tox>
4.330

> <CAS>
5798-75-4

$$$$

  CDK

  8  8  0  0  0  0  0  0  0  0999 V2000
    0.8296   -1.4160   -0.0047 S   0  0  0  0  0  0  0  0  0  0  0  0
   -0.0830    0.0329   -0.0017 C   0  0  0  0  0  0  0  0  0  0  0  0
    2.3066   -0.5495   -0.0004 C   0  0  0  0  0  0  0  0  0  0  0  0
    0.7221    1.1509    0.0026 C   0  0  0  0  0  0  0  0  0  0  0  0
   -1.5080   -0.0434   -0.0045 C   0  0  0  0  0  0  0  0  0  0  0  0
    2.1063    0.8135    0.0033 C   0  0  0  0  0  0  0  0  0  0  0  0
   -2.1258   -1.1391    0.0083 O   0  0  0  0  0  0  0  0  0  0  0  0
   -2.2478    1.1507   -0.0029 N   0  0  0  0  0  0  0  0  0  0  0  0
  1  2  1  0  0  0  0 
  1  3  1  0  0  0  0 
  2  4  2  0  0  0  0 
  2  5  1  0  0  0  0 
  6  3  2  0  0  0  0 
  4  6  1  0  0  0  0 
  7  5  2  0  0  0  0 
  8  5  1  0  0  0  0 
M  END
> <Name>
thiophene-2-carboxamide

> <Source>
Chemidplus3DMolFile

> <Tox>
2.030

> <CAS>
5813-89-8

$$$$

  CDK

  9  8  0  0  0  0  0  0  0  0999 V2000
    3.5089    1.4748    0.0000 O   0  0  0  0  0  0  0  0  0  0  0  0
    2.6444    1.0171    0.0000 C   0  0  0  0  0  0  0  0  0  0  0  0
    4.3734    1.0171    0.0000 C   0  0  0  0  0  0  0  0  0  0  0  0
    2.6444    0.0000    0.0000 O   0  0  0  0  0  0  0  0  0  0  0  0
    1.7799    1.4748    0.0000 C   0  0  0  0  0  0  0  0  0  0  0  0
    5.2379    1.5765    0.0000 C   0  0  0  0  0  0  0  0  0  0  0  0
    0.8645    1.0171    0.0000 C   0  0  0  0  0  0  0  0  0  0  0  0
    1.7799    2.4918    0.0000 C   0  0  0  0  0  0  0  0  0  0  0  0
    0.0000    1.4748    0.0000 C   0  0  0  0  0  0  0  0  0  0  0  0
  1  2  1  0  0  0  0 
  1  3  1  0  0  0  0 
  2  4  2  0  0  0  0 
  2  5  1  0  0  0  0 
  3  6  1  0  0  0  0 
  5  7  2  0  0  0  0 
  5  8  1  0  0  0  0 
  7  9  1  0  0  0  0 
M  END
> <Name>
Crotonic acid, 2-methyl-, ethyl ester, (E)- (8CI)

> <Source>
NIST2DMolFile

> <Tox>
2.504

> <CAS>
5837-78-5

$$$$

  CDK

  6  5  0  0  0  0  0  0  0  0999 V2000
   -2.9812    0.2630   -0.0157 Cl  0  0  0  0  0  0  0  0  0  0  0  0
   -1.3691   -0.4940    0.0181 C   0  0  0  0  0  0  0  0  0  0  0  0
   -0.2667    0.5546    0.0086 C   0  0  0  0  0  0  0  0  0  0  0  0
    1.1337   -0.0314    0.0040 C   0  0  0  0  0  0  0  0  0  0  0  0
    1.3743   -1.2350   -0.0104 O   0  0  0  0  0  0  0  0  0  0  0  0
    2.1090    0.9428   -0.0047 N   0  0  0  0  0  0  0  0  0  0  0  0
  1  2  1  0  0  0  0 
  3  2  1  0  0  0  0 
  3  4  1  0  0  0  0 
  5  4  2  0  0  0  0 
  6  4  1  0  0  0  0 
M  END
> <Name>
3-chloropropanamide

> <Source>
Chemidplus3DMolFile

> <Tox>
1.409

> <CAS>
5875-24-1

$$$$

  CDK

  6  5  0  0  0  0  0  0  0  0999 V2000
   -2.4483   -0.7846   -1.5705 Br  0  0  0  0  0  0  0  0  0  0  0  0
   -2.1074    0.5325   -0.1695 C   0  0  0  0  0  0  0  0  0  0  0  0
   -0.8915    0.1040    0.6293 C   0  0  0  0  0  0  0  0  0  0  0  0
   -1.8982    1.8453   -0.8940 C   0  0  0  0  0  0  0  0  0  0  0  0
   -0.7906    2.2742   -1.2094 O   0  0  0  0  0  0  0  0  0  0  0  0
   -3.0762    2.5022   -1.1784 N   0  0  0  0  0  0  0  0  0  0  0  0
  1  2  1  0  0  0  0 
  2  3  1  0  0  0  0 
  2  4  1  0  0  0  0 
  5  4  2  0  0  0  0 
  6  4  1  0  0  0  0 
M  END
> <Name>
Propanamide, 2-bromo- (9CI)

> <Source>
Chemidplus3DMolFile

> <Tox>
3.004

> <CAS>
5875-25-2

$$$$

  CDK

  8  8  0  0  0  0  0  0  0  0999 V2000
    0.0000    0.8481    0.0000 C   0  0  0  0  0  0  0  0  0  0  0  0
    0.9978    0.8481    0.0000 C   0  0  0  0  0  0  0  0  0  0  0  0
    1.4967    1.7462    0.0000 C   0  0  0  0  0  0  0  0  0  0  0  0
    1.4967    0.0000    0.0000 N   0  0  0  0  0  0  0  0  0  0  0  0
    0.9978    2.5943    0.0000 C   0  0  0  0  0  0  0  0  0  0  0  0
    2.4945    1.7462    0.0000 N   0  0  0  0  0  0  0  0  0  0  0  0
    2.4945    0.0000    0.0000 C   0  0  0  0  0  0  0  0  0  0  0  0
    2.9934    0.8481    0.0000 C   0  0  0  0  0  0  0  0  0  0  0  0
  1  2  1  0  0  0  0 
  3  2  2  0  0  0  0 
  2  4  1  0  0  0  0 
  3  5  1  0  0  0  0 
  6  3  1  0  0  0  0 
  4  7  2  0  0  0  0 
  8  6  2  0  0  0  0 
  7  8  1  0  0  0  0 
M  END
> <Name>
Pyrazine, 2,3-dimethyl-

> <Source>
NIST2DMolFile

> <Tox>
2.130

> <CAS>
5910-89-4

$$$$

  CDK

 10  9  0  0  0  0  0  0  0  0999 V2000
    4.3469    1.4989    0.0000 C   0  0  0  0  0  0  0  0  0  0  0  0
    3.4475    0.9993    0.0000 C   0  0  0  0  0  0  0  0  0  0  0  0
    5.1963    1.0493    0.0000 C   0  0  0  0  0  0  0  0  0  0  0  0
    2.5981    1.4989    0.0000 C   0  0  0  0  0  0  0  0  0  0  0  0
    6.0457    0.5496    0.0000 C   0  0  0  0  0  0  0  0  0  0  0  0
    1.7488    0.9993    0.0000 C   0  0  0  0  0  0  0  0  0  0  0  0
    6.9450    0.0000    0.0000 C   0  0  0  0  0  0  0  0  0  0  0  0
    0.8494    1.4989    0.0000 C   0  0  0  0  0  0  0  0  0  0  0  0
    7.7944    0.4996    0.0000 O   0  0  0  0  0  0  0  0  0  0  0  0
    0.0000    0.9993    0.0000 C   0  0  0  0  0  0  0  0  0  0  0  0
  1  2  1  0  0  0  0 
  1  3  1  0  0  0  0 
  2  4  1  0  0  0  0 
  3  5  3  0  0  0  0 
  4  6  1  0  0  0  0 
  5  7  1  0  0  0  0 
  6  8  1  0  0  0  0 
  7  9  1  0  0  0  0 
  8 10  1  0  0  0  0 
M  END
> <Name>
Non-2-yn-1-ol

> <Source>
NIST2DMolFile

> <Tox>
3.649

> <CAS>
5921-73-3

$$$$

  CDK

 10 10  0  0  0  0  0  0  0  0999 V2000
    2.3034   -0.6622    0.0000 C   0  0  0  0  0  0  0  0  0  0  0  0
    1.1517   -0.0000    0.0000 N   0  0  0  0  0  0  0  0  0  0  0  0
    3.4551   -0.0000    0.0000 C   0  0  0  0  0  0  0  0  0  0  0  0
    2.3034   -1.9924    0.0000 C   0  0  0  0  0  0  0  0  0  0  0  0
    4.6068   -0.6622    0.0000 C   0  0  0  0  0  0  0  0  0  0  0  0
    3.4551   -2.6604    0.0000 C   0  0  0  0  0  0  0  0  0  0  0  0
    1.1517   -2.6604    0.0000 C   0  0  0  0  0  0  0  0  0  0  0  0
    4.6068   -1.9924    0.0000 C   0  0  0  0  0  0  0  0  0  0  0  0
    0.0000   -3.3226    0.0000 N   0  0  0  0  0  0  0  0  0  0  0  0
    5.7585   -2.6604    0.0000 Cl  0  0  0  0  0  0  0  0  0  0  0  0
  1  2  1  0  0  0  0 
  1  3  2  0  0  0  0 
  1  4  1  0  0  0  0 
  3  5  1  0  0  0  0 
  6  4  2  0  0  0  0 
  4  7  1  0  0  0  0 
  5  8  2  0  0  0  0 
  8  6  1  0  0  0  0 
  7  9  3  0  0  0  0 
  8 10  1  0  0  0  0 
M  END
> <Name>
Benzonitrile, 2-amino-5-chloro-

> <Source>
DSSTox2DMolFile

> <Tox>
3.440

> <CAS>
5922-60-1

$$$$

  CDK

  6  5  0  0  0  0  0  0  0  0999 V2000
    2.1214    1.0127    0.0174 C   0  0  0  0  0  0  0  0  0  0  0  0
    1.0247    0.0033   -0.3231 C   0  0  0  0  0  0  0  0  0  0  0  0
   -0.3273    0.4670    0.2361 C   0  0  0  0  0  0  0  0  0  0  0  0
    1.2969   -1.2678    0.2419 O   0  0  0  0  0  0  0  0  0  0  0  0
   -1.4938   -0.2907   -0.3775 C   0  0  0  0  0  0  0  0  0  0  0  0
   -2.8156    0.1993    0.1700 C   0  0  0  0  0  0  0  0  0  0  0  0
  1  2  1  0  0  0  0 
  2  3  1  0  0  0  0 
  2  4  1  0  0  0  0 
  3  5  1  0  0  0  0 
  5  6  1  0  0  0  0 
M  END
> <Name>
2-Pentanol

> <Source>
DougDB3DMolFile

> <Tox>
1.840

> <CAS>
6032-29-7

$$$$

  CDK

  6  5  0  0  0  0  0  0  0  0999 V2000
    1.4927    0.0000    0.0000 C   0  0  0  0  0  0  0  0  0  0  0  0
    2.5221    0.0000    0.0000 C   0  0  0  0  0  0  0  0  0  0  0  0
    0.9780    0.8750    0.0000 C   0  0  0  0  0  0  0  0  0  0  0  0
    3.0883    0.8236    0.0000 C   0  0  0  0  0  0  0  0  0  0  0  0
    0.0000    0.8750    0.0000 O   0  0  0  0  0  0  0  0  0  0  0  0
    4.0663    0.8236    0.0000 O   0  0  0  0  0  0  0  0  0  0  0  0
  1  2  2  0  0  0  0 
  1  3  1  0  0  0  0 
  2  4  1  0  0  0  0 
  3  5  1  0  0  0  0 
  4  6  1  0  0  0  0 
M  END
> <Name>
(Z)-2-Butene-1,4-diol

> <Source>
NIST2DMolFile

> <Tox>
0.851

> <CAS>
6117-80-2

$$$$

  CDK

  5  4  0  0  0  0  0  0  0  0999 V2000
    1.2261    0.5123    0.1091 C   0  0  0  0  0  0  0  0  0  0  0  0
   -0.0857   -0.2051    0.1724 C   0  0  0  0  0  0  0  0  0  0  0  0
    2.3172   -0.3485   -0.0856 O   0  0  0  0  0  0  0  0  0  0  0  0
   -1.2384    0.4026   -0.1107 C   0  0  0  0  0  0  0  0  0  0  0  0
   -2.5512   -0.2731   -0.0220 C   0  0  0  0  0  0  0  0  0  0  0  0
  1  2  1  0  0  0  0 
  1  3  1  0  0  0  0 
  2  4  2  0  0  0  0 
  4  5  1  0  0  0  0 
M  END
> <Name>
2-Buten-1-ol

> <Source>
DougDB3DMolFile

> <Tox>
1.528

> <CAS>
6117-91-5

$$$$

  CDK

 11 10  0  0  0  0  0  0  0  0999 V2000
    0.0000    0.0505    0.0000 C   0  0  0  0  0  0  0  0  0  0  0  0
    0.8585    0.5555    0.0000 C   0  0  0  0  0  0  0  0  0  0  0  0
    1.7675    0.0000    0.0000 C   0  0  0  0  0  0  0  0  0  0  0  0
    2.6259    0.5050    0.0000 C   0  0  0  0  0  0  0  0  0  0  0  0
    3.4844    0.0000    0.0000 C   0  0  0  0  0  0  0  0  0  0  0  0
    4.3429    0.5050    0.0000 C   0  0  0  0  0  0  0  0  0  0  0  0
    5.2014    0.0000    0.0000 C   0  0  0  0  0  0  0  0  0  0  0  0
    4.3429    1.4645    0.0000 O   0  0  0  0  0  0  0  0  0  0  0  0
    6.0598    0.5050    0.0000 C   0  0  0  0  0  0  0  0  0  0  0  0
    6.9688    0.0000    0.0000 C   0  0  0  0  0  0  0  0  0  0  0  0
    6.0598    1.4645    0.0000 O   0  0  0  0  0  0  0  0  0  0  0  0
  1  2  1  0  0  0  0 
  2  3  1  0  0  0  0 
  3  4  1  0  0  0  0 
  4  5  1  0  0  0  0 
  5  6  1  0  0  0  0 
  6  7  1  0  0  0  0 
  6  8  2  0  0  0  0 
  7  9  1  0  0  0  0 
  9 10  1  0  0  0  0 
  9 11  2  0  0  0  0 
M  END
> <Name>
Nonane-2,4-dione

> <Source>
NIST2DMolFile

> <Tox>
3.506

> <CAS>
6175-23-1

$$$$

  CDK

 13 12  0  0  0  0  0  0  0  0999 V2000
    0.0000   -2.6588    0.0000 C   0  0  0  0  0  0  0  0  0  0  0  0
    1.1510   -1.9912    0.0000 C   0  0  0  0  0  0  0  0  0  0  0  0
    2.3020   -2.6588    0.0000 C   0  0  0  0  0  0  0  0  0  0  0  0
    3.4530   -1.9912    0.0000 C   0  0  0  0  0  0  0  0  0  0  0  0
    4.6040   -2.6588    0.0000 C   0  0  0  0  0  0  0  0  0  0  0  0
    5.7550   -1.9912    0.0000 C   0  0  0  0  0  0  0  0  0  0  0  0
    6.9059   -2.6588    0.0000 C   0  0  0  0  0  0  0  0  0  0  0  0
    8.0569   -1.9912    0.0000 C   0  0  0  0  0  0  0  0  0  0  0  0
    9.2079   -2.6588    0.0000 C   0  0  0  0  0  0  0  0  0  0  0  0
   10.3589   -1.9912    0.0000 C   0  0  0  0  0  0  0  0  0  0  0  0
   10.3589   -0.6676    0.0000 C   0  0  0  0  0  0  0  0  0  0  0  0
    9.2079   -0.0000    0.0000 O   0  0  0  0  0  0  0  0  0  0  0  0
   11.5099   -0.0000    0.0000 C   0  0  0  0  0  0  0  0  0  0  0  0
  1  2  1  0  0  0  0 
  2  3  1  0  0  0  0 
  3  4  1  0  0  0  0 
  4  5  1  0  0  0  0 
  5  6  1  0  0  0  0 
  6  7  1  0  0  0  0 
  7  8  1  0  0  0  0 
  8  9  1  0  0  0  0 
  9 10  1  0  0  0  0 
 10 11  1  0  0  0  0 
 11 12  2  0  0  0  0 
 11 13  1  0  0  0  0 
M  END
> <Name>
2-Dodecanone

> <Source>
DSSTox2DMolFile

> <Tox>
4.670

> <CAS>
6175-49-1

$$$$

  CDK

 13 13  0  0  0  0  0  0  0  0999 V2000
    4.6546   -2.3013    0.0000 C   0  0  0  0  0  0  0  0  0  0  0  0
    3.9971   -1.1507    0.0000 C   0  0  0  0  0  0  0  0  0  0  0  0
    5.9870   -2.3013    0.0000 C   0  0  0  0  0  0  0  0  0  0  0  0
    2.6647   -1.1507    0.0000 C   0  0  0  0  0  0  0  0  0  0  0  0
    4.6546   -0.0000    0.0000 C   0  0  0  0  0  0  0  0  0  0  0  0
    6.6531   -1.1507    0.0000 C   0  0  0  0  0  0  0  0  0  0  0  0
    1.9985   -2.3013    0.0000 C   0  0  0  0  0  0  0  0  0  0  0  0
    5.9870   -0.0000    0.0000 C   0  0  0  0  0  0  0  0  0  0  0  0
    7.9855   -1.1507    0.0000 N   0  0  0  0  0  0  0  0  0  0  0  0
    0.6662   -2.3013    0.0000 C   0  0  0  0  0  0  0  0  0  0  0  0
    8.6517   -2.3013    0.0000 C   0  0  0  0  0  0  0  0  0  0  0  0
    8.6517   -0.0000    0.0000 C   0  0  0  0  0  0  0  0  0  0  0  0
    0.0000   -1.1507    0.0000 O   0  0  0  0  0  0  0  0  0  0  0  0
  1  2  2  0  0  0  0 
  1  3  1  0  0  0  0 
  2  4  1  0  0  0  0 
  2  5  1  0  0  0  0 
  6  3  2  0  0  0  0 
  4  7  2  0  0  0  0 
  5  8  2  0  0  0  0 
  8  6  1  0  0  0  0 
  6  9  1  0  0  0  0 
  7 10  1  0  0  0  0 
  9 11  1  0  0  0  0 
  9 12  1  0  0  0  0 
 10 13  2  0  0  0  0 
M  END
> <Name>
2-Propenal, 3-(4-(dimethylamino)phenyl)-

> <Source>
DSSTox2DMolFile

> <Tox>
3.520

> <CAS>
6203-18-5

$$$$

  CDK

  6  5  0  0  0  0  0  0  0  0999 V2000
    1.5391    0.8209    0.0000 C   0  0  0  0  0  0  0  0  0  0  0  0
    2.5652    0.8209    0.0000 C   0  0  0  0  0  0  0  0  0  0  0  0
    0.5130    0.8209    0.0000 C   0  0  0  0  0  0  0  0  0  0  0  0
    3.4886    0.8209    0.0000 C   0  0  0  0  0  0  0  0  0  0  0  0
    0.0000    0.0000    0.0000 O   0  0  0  0  0  0  0  0  0  0  0  0
    4.0017    1.7443    0.0000 C   0  0  0  0  0  0  0  0  0  0  0  0
  1  2  3  0  0  0  0 
  1  3  1  0  0  0  0 
  2  4  1  0  0  0  0 
  3  5  1  0  0  0  0 
  4  6  1  0  0  0  0 
M  END
> <Name>
2-Pentyn-1-ol

> <Source>
NIST2DMolFile

> <Tox>
2.428

> <CAS>
6261-22-9

$$$$

  CDK

 11 11  0  0  0  0  0  0  0  0999 V2000
    1.6775    2.1043    0.0001 N   0  0  0  0  0  0  0  0  0  0  0  0
    0.8981    0.9476    0.0001 C   0  0  0  0  0  0  0  0  0  0  0  0
    1.4973   -0.3273    0.0000 C   0  0  0  0  0  0  0  0  0  0  0  0
   -0.5049    1.0431    0.0001 C   0  0  0  0  0  0  0  0  0  0  0  0
    0.7134   -1.4745   -0.0001 C   0  0  0  0  0  0  0  0  0  0  0  0
    3.1761   -0.4812    0.0000 Cl  0  0  0  0  0  0  0  0  0  0  0  0
   -1.2795   -0.1166    0.0000 C   0  0  0  0  0  0  0  0  0  0  0  0
   -0.6720   -1.3778   -0.0001 C   0  0  0  0  0  0  0  0  0  0  0  0
   -2.7751   -0.0098    0.0000 N   0  0  0  0  0  0  0  0  0  0  0  0
   -3.4488   -1.0209    0.0003 O   0  0  0  0  0  0  0  0  0  0  0  0
   -3.2969    1.0886   -0.0003 O   0  0  0  0  0  0  0  0  0  0  0  0
  1  2  1  0  0  0  0 
  2  3  1  0  0  0  0 
  2  4  2  0  0  0  0 
  3  5  2  0  0  0  0 
  3  6  1  0  0  0  0 
  7  4  1  0  0  0  0 
  5  8  1  0  0  0  0 
  8  7  2  0  0  0  0 
  7  9  1  0  0  0  0 
  9 10  2  0  0  0  0 
  9 11  1  0  0  0  0 
M  CHG  1   9   1
M  CHG  1  11  -1
M  END
> <Name>
Benzenamine, 2-chloro-5-nitro-

> <Source>
DougDB3DMolFile

> <Tox>
3.600

> <CAS>
6283-25-6

$$$$

  CDK

 15 15  0  0  0  0  0  0  0  0999 V2000
    5.7586   -0.0000    0.0000 Cl  0  0  0  0  0  0  0  0  0  0  0  0
    4.6111   -0.6637    0.0000 C   0  0  0  0  0  0  0  0  0  0  0  0
    4.6111   -1.9910    0.0000 C   0  0  0  0  0  0  0  0  0  0  0  0
    3.4566   -0.0000    0.0000 C   0  0  0  0  0  0  0  0  0  0  0  0
    5.7586   -2.6616    0.0000 N   0  0  0  0  0  0  0  0  0  0  0  0
    3.4566   -2.6616    0.0000 C   0  0  0  0  0  0  0  0  0  0  0  0
    2.3021   -0.6637    0.0000 C   0  0  0  0  0  0  0  0  0  0  0  0
    6.9131   -1.9910    0.0000 O   0  0  0  0  0  0  0  0  0  0  0  0
    5.7586   -3.9889    0.0000 O   0  0  0  0  0  0  0  0  0  0  0  0
    3.4566   -3.9889    0.0000 Cl  0  0  0  0  0  0  0  0  0  0  0  0
    2.3021   -1.9910    0.0000 C   0  0  0  0  0  0  0  0  0  0  0  0
    1.1545   -0.0000    0.0000 Cl  0  0  0  0  0  0  0  0  0  0  0  0
    1.1545   -2.6616    0.0000 N   0  0  0  0  0  0  0  0  0  0  0  0
    0.0000   -1.9910    0.0000 O   0  0  0  0  0  0  0  0  0  0  0  0
    1.1545   -3.9889    0.0000 O   0  0  0  0  0  0  0  0  0  0  0  0
  1  2  1  0  0  0  0 
  2  3  2  0  0  0  0 
  2  4  1  0  0  0  0 
  3  5  1  0  0  0  0 
  3  6  1  0  0  0  0 
  7  4  2  0  0  0  0 
  5  8  1  0  0  0  0 
  5  9  2  0  0  0  0 
  6 10  1  0  0  0  0 
  6 11  2  0  0  0  0 
 11  7  1  0  0  0  0 
  7 12  1  0  0  0  0 
 11 13  1  0  0  0  0 
 13 14  1  0  0  0  0 
 13 15  2  0  0  0  0 
M  CHG  1   5   1
M  CHG  1   8  -1
M  CHG  1  13   1
M  CHG  1  14  -1
M  END
> <Name>
Benzene, 1,3,5-trichloro-2,4-dinitro-

> <Source>
DSSTox2DMolFile

> <Tox>
5.190

> <CAS>
6284-83-9

$$$$

  CDK

  8  7  0  0  0  0  0  0  0  0999 V2000
    2.6096    1.5056    0.0000 C   0  0  0  0  0  0  0  0  0  0  0  0
    1.7063    1.0037    0.0000 C   0  0  0  0  0  0  0  0  0  0  0  0
    3.4628    1.0037    0.0000 C   0  0  0  0  0  0  0  0  0  0  0  0
    2.6096    2.5093    0.0000 O   0  0  0  0  0  0  0  0  0  0  0  0
    0.8531    1.5056    0.0000 C   0  0  0  0  0  0  0  0  0  0  0  0
    1.7063    0.0000    0.0000 O   0  0  0  0  0  0  0  0  0  0  0  0
    4.3159    1.5056    0.0000 Br  0  0  0  0  0  0  0  0  0  0  0  0
    0.0000    1.0037    0.0000 Br  0  0  0  0  0  0  0  0  0  0  0  0
  1  2  1  0  0  0  0 
  1  3  1  0  0  0  0 
  1  4  2  0  0  0  0 
  2  5  1  0  0  0  0 
  2  6  2  0  0  0  0 
  3  7  1  0  0  0  0 
  5  8  1  0  0  0  0 
M  END
> <Name>
2,3-Butanedione, 1,4-dibromo-

> <Source>
NIST2DMolFile

> <Tox>
4.762

> <CAS>
6305-43-7

$$$$

  CDK

 16 15  0  0  0  0  0  0  0  0999 V2000
    0.0000    0.9995    0.0000 C   0  0  0  0  0  0  0  0  0  0  0  0
    0.8995    1.4992    0.0000 C   0  0  0  0  0  0  0  0  0  0  0  0
    1.7491    0.9995    0.0000 O   0  0  0  0  0  0  0  0  0  0  0  0
    2.5986    1.4992    0.0000 C   0  0  0  0  0  0  0  0  0  0  0  0
    3.4981    0.9995    0.0000 C   0  0  0  0  0  0  0  0  0  0  0  0
    2.5986    2.4986    0.0000 O   0  0  0  0  0  0  0  0  0  0  0  0
    4.3476    1.4992    0.0000 C   0  0  0  0  0  0  0  0  0  0  0  0
    5.2472    0.9995    0.0000 C   0  0  0  0  0  0  0  0  0  0  0  0
    6.0467    1.4992    0.0000 C   0  0  0  0  0  0  0  0  0  0  0  0
    5.2472    0.0000    0.0000 O   0  0  0  0  0  0  0  0  0  0  0  0
    6.8963    0.9995    0.0000 C   0  0  0  0  0  0  0  0  0  0  0  0
    7.7958    1.4992    0.0000 C   0  0  0  0  0  0  0  0  0  0  0  0
    8.6453    0.9995    0.0000 O   0  0  0  0  0  0  0  0  0  0  0  0
    7.7958    2.4986    0.0000 O   0  0  0  0  0  0  0  0  0  0  0  0
    9.4948    1.4992    0.0000 C   0  0  0  0  0  0  0  0  0  0  0  0
   10.3944    0.9995    0.0000 C   0  0  0  0  0  0  0  0  0  0  0  0
  1  2  1  0  0  0  0 
  2  3  1  0  0  0  0 
  3  4  1  0  0  0  0 
  4  5  1  0  0  0  0 
  4  6  2  0  0  0  0 
  5  7  1  0  0  0  0 
  7  8  1  0  0  0  0 
  8  9  1  0  0  0  0 
  8 10  2  0  0  0  0 
  9 11  1  0  0  0  0 
 11 12  1  0  0  0  0 
 12 13  1  0  0  0  0 
 12 14  2  0  0  0  0 
 13 15  1  0  0  0  0 
 15 16  1  0  0  0  0 
M  END
> <Name>
Heptanedioic acid, 4-oxo-, diethyl ester

> <Source>
NIST2DMolFile

> <Tox>
2.362

> <CAS>
6317-49-3

$$$$

  CDK

 12 12  0  0  0  0  0  0  0  0999 V2000
    0.6641   -2.3033    0.0000 N   0  0  0  0  0  0  0  0  0  0  0  0
    0.0000   -1.1547    0.0000 O   0  0  0  0  0  0  0  0  0  0  0  0
    0.0000   -3.4580    0.0000 O   0  0  0  0  0  0  0  0  0  0  0  0
    1.9922   -2.3033    0.0000 C   0  0  0  0  0  0  0  0  0  0  0  0
    2.6563   -1.1547    0.0000 C   0  0  0  0  0  0  0  0  0  0  0  0
    2.6563   -3.4580    0.0000 C   0  0  0  0  0  0  0  0  0  0  0  0
    3.9905   -1.1547    0.0000 C   0  0  0  0  0  0  0  0  0  0  0  0
    3.9905   -3.4580    0.0000 C   0  0  0  0  0  0  0  0  0  0  0  0
    1.9922   -4.6067    0.0000 Cl  0  0  0  0  0  0  0  0  0  0  0  0
    4.6546   -0.0000    0.0000 O   0  0  0  0  0  0  0  0  0  0  0  0
    4.6546   -2.3033    0.0000 C   0  0  0  0  0  0  0  0  0  0  0  0
    5.9827   -2.3033    0.0000 N   0  0  0  0  0  0  0  0  0  0  0  0
  1  2  2  0  0  0  0 
  1  3  1  0  0  0  0 
  1  4  1  0  0  0  0 
  4  5  2  0  0  0  0 
  4  6  1  0  0  0  0 
  5  7  1  0  0  0  0 
  8  6  2  0  0  0  0 
  6  9  1  0  0  0  0 
  7 10  1  0  0  0  0 
  7 11  2  0  0  0  0 
 11  8  1  0  0  0  0 
 11 12  1  0  0  0  0 
M  CHG  1   1   1
M  CHG  1   3  -1
M  END
> <Name>
2-amino-4-chloro-5-nitrophenol

> <Source>
DSSTox2DMolFile

> <Tox>
4.170

> <CAS>
6358-07-2

$$$$

  CDK

 12 12  0  0  0  0  0  0  0  0999 V2000
    4.8728    0.0000    0.0000 N   0  0  0  0  0  0  0  0  0  0  0  0
    4.1647    1.2078    0.0000 C   0  0  0  0  0  0  0  0  0  0  0  0
    2.7904    1.2078    0.0000 C   0  0  0  0  0  0  0  0  0  0  0  0
    4.8728    2.4156    0.0000 C   0  0  0  0  0  0  0  0  0  0  0  0
    2.0824    2.4156    0.0000 C   0  0  0  0  0  0  0  0  0  0  0  0
    4.1647    3.6233    0.0000 C   0  0  0  0  0  0  0  0  0  0  0  0
    6.2888    2.4156    0.0000 O   0  0  0  0  0  0  0  0  0  0  0  0
    2.7904    3.6233    0.0000 C   0  0  0  0  0  0  0  0  0  0  0  0
    0.6664    2.4156    0.0000 N   0  0  0  0  0  0  0  0  0  0  0  0
    4.8728    4.8311    0.0000 Cl  0  0  0  0  0  0  0  0  0  0  0  0
    0.0000    1.2078    0.0000 O   0  0  0  0  0  0  0  0  0  0  0  0
    0.0000    3.6233    0.0000 O   0  0  0  0  0  0  0  0  0  0  0  0
  1  2  1  0  0  0  0 
  2  3  2  0  0  0  0 
  2  4  1  0  0  0  0 
  3  5  1  0  0  0  0 
  6  4  2  0  0  0  0 
  4  7  1  0  0  0  0 
  5  8  2  0  0  0  0 
  5  9  1  0  0  0  0 
  8  6  1  0  0  0  0 
  6 10  1  0  0  0  0 
  9 11  2  0  0  0  0 
  9 12  1  0  0  0  0 
M  CHG  1   9   1
M  CHG  1  12  -1
M  END
> <Name>
Phenol, 2-amino-6-chloro-4-nitro-

> <Source>
IndexNet2DMolFile

> <Tox>
4.200

> <CAS>
6358-09-4

$$$$

  CDK

 15 15  0  0  0  0  0  0  0  0999 V2000
    3.9125    2.3575    0.0000 O   0  0  0  0  0  0  0  0  0  0  0  0
    3.9125    1.3543    0.0000 C   0  0  0  0  0  0  0  0  0  0  0  0
    4.7652    0.8527    0.0000 O   0  0  0  0  0  0  0  0  0  0  0  0
    3.0096    0.8527    0.0000 C   0  0  0  0  0  0  0  0  0  0  0  0
    5.6179    1.3543    0.0000 C   0  0  0  0  0  0  0  0  0  0  0  0
    2.5582    1.7054    0.0000 C   0  0  0  0  0  0  0  0  0  0  0  0
    2.5582    0.0000    0.0000 C   0  0  0  0  0  0  0  0  0  0  0  0
    6.5208    0.8527    0.0000 C   0  0  0  0  0  0  0  0  0  0  0  0
    1.5550    1.7054    0.0000 C   0  0  0  0  0  0  0  0  0  0  0  0
    1.5550    0.0000    0.0000 C   0  0  0  0  0  0  0  0  0  0  0  0
    7.3735    1.3543    0.0000 C   0  0  0  0  0  0  0  0  0  0  0  0
    1.0032    0.8527    0.0000 C   0  0  0  0  0  0  0  0  0  0  0  0
    7.3735    2.3575    0.0000 C   0  0  0  0  0  0  0  0  0  0  0  0
    8.2263    0.8527    0.0000 C   0  0  0  0  0  0  0  0  0  0  0  0
    0.0000    0.8527    0.0000 O   0  0  0  0  0  0  0  0  0  0  0  0
  1  2  2  0  0  0  0 
  2  3  1  0  0  0  0 
  2  4  1  0  0  0  0 
  5  3  1  0  0  0  0 
  6  4  2  0  0  0  0 
  4  7  1  0  0  0  0 
  8  5  1  0  0  0  0 
  9  6  1  0  0  0  0 
  7 10  2  0  0  0  0 
 11  8  1  0  0  0  0 
 12  9  2  0  0  0  0 
 10 12  1  0  0  0  0 
 13 11  1  0  0  0  0 
 11 14  1  0  0  0  0 
 15 12  1  0  0  0  0 
M  END
> <Name>
Benzoic acid, 4-hydroxy-, 3-methylbutyl ester

> <Source>
NIST2DMolFile

> <Tox>
4.480

> <CAS>
6521-30-8

$$$$

  CDK

 10 10  0  0  0  0  0  0  0  0999 V2000
    0.0000   -2.3028    0.0000 N   0  0  0  0  0  0  0  0  0  0  0  0
    1.3296   -2.3028    0.0000 C   0  0  0  0  0  0  0  0  0  0  0  0
    2.6591   -2.3028    0.0000 C   0  0  0  0  0  0  0  0  0  0  0  0
    3.3239   -1.1487    0.0000 C   0  0  0  0  0  0  0  0  0  0  0  0
    3.3239   -3.4568    0.0000 C   0  0  0  0  0  0  0  0  0  0  0  0
    2.6591   -0.0000    0.0000 Cl  0  0  0  0  0  0  0  0  0  0  0  0
    4.6534   -1.1487    0.0000 C   0  0  0  0  0  0  0  0  0  0  0  0
    4.6534   -3.4568    0.0000 C   0  0  0  0  0  0  0  0  0  0  0  0
    2.6591   -4.6056    0.0000 C   0  0  0  0  0  0  0  0  0  0  0  0
    5.3182   -2.3028    0.0000 C   0  0  0  0  0  0  0  0  0  0  0  0
  1  2  3  0  0  0  0 
  2  3  1  0  0  0  0 
  3  4  2  0  0  0  0 
  3  5  1  0  0  0  0 
  4  6  1  0  0  0  0 
  4  7  1  0  0  0  0 
  8  5  2  0  0  0  0 
  5  9  1  0  0  0  0 
  7 10  2  0  0  0  0 
 10  8  1  0  0  0  0 
M  END
> <Name>
Benzonitrile, 2-chloro-6-methyl-

> <Source>
DSSTox2DMolFile

> <Tox>
3.460

> <CAS>
6575-09-3

$$$$

  CDK

  8  8  0  0  0  0  0  0  0  0999 V2000
    1.9954   -3.4560    0.0000 N   0  0  0  0  0  0  0  0  0  0  0  0
    1.3289   -2.3027    0.0000 C   0  0  0  0  0  0  0  0  0  0  0  0
    3.3243   -3.4560    0.0000 C   0  0  0  0  0  0  0  0  0  0  0  0
    0.0000   -2.3027    0.0000 Br  0  0  0  0  0  0  0  0  0  0  0  0
    1.9954   -1.1533    0.0000 C   0  0  0  0  0  0  0  0  0  0  0  0
    3.9907   -2.3027    0.0000 C   0  0  0  0  0  0  0  0  0  0  0  0
    1.3289   -0.0000    0.0000 O   0  0  0  0  0  0  0  0  0  0  0  0
    3.3243   -1.1533    0.0000 C   0  0  0  0  0  0  0  0  0  0  0  0
  1  2  2  0  0  0  0 
  1  3  1  0  0  0  0 
  2  4  1  0  0  0  0 
  2  5  1  0  0  0  0 
  6  3  2  0  0  0  0 
  5  7  1  0  0  0  0 
  5  8  2  0  0  0  0 
  8  6  1  0  0  0  0 
M  END
> <Name>
3-Pyridinol, 2-bromo-

> <Source>
DSSTox2DMolFile

> <Tox>
3.150

> <CAS>
6602-32-0

$$$$

  CDK

  8  7  0  0  0  0  0  0  0  0999 V2000
    0.0000    0.0000    0.0000 O   0  0  0  0  0  0  0  0  0  0  0  0
    0.0000    0.6000   -1.0400 C   0  0  0  0  0  0  0  0  0  0  0  0
    0.5000    1.9800   -1.1200 C   0  0  0  0  0  0  0  0  0  0  0  0
   -0.4200    0.0800   -2.1800 O   0  0  0  0  0  0  0  0  0  0  0  0
    1.0200    2.6800    0.1200 C   0  0  0  0  0  0  0  0  0  0  0  0
    0.5200    2.6400   -2.2800 C   0  0  0  0  0  0  0  0  0  0  0  0
   -0.9000   -1.2400   -2.0400 C   0  0  0  0  0  0  0  0  0  0  0  0
    1.0400    4.0600   -2.3000 C   0  0  0  0  0  0  0  0  0  0  0  0
  1  2  2  0  0  0  0 
  2  3  1  0  0  0  0 
  2  4  1  0  0  0  0 
  3  5  1  0  0  0  0 
  3  6  2  0  0  0  0 
  4  7  1  0  0  0  0 
  6  8  1  0  0  0  0 
M  END
> <Name>
methyl (E)-2-methylbut-2-enoate

> <Source>
NIH3DMolFile

> <Tox>
2.380

> <CAS>
6622-76-0

$$$$

  CDK

  9  9  0  0  0  0  0  0  0  0999 V2000
    2.4966    0.8662    0.0000 C   0  0  0  0  0  0  0  0  0  0  0  0
    1.5285    0.8662    0.0000 C   0  0  0  0  0  0  0  0  0  0  0  0
    3.0061    1.6814    0.0000 C   0  0  0  0  0  0  0  0  0  0  0  0
    3.0061    0.0000    0.0000 Br  0  0  0  0  0  0  0  0  0  0  0  0
    1.0190    1.6814    0.0000 C   0  0  0  0  0  0  0  0  0  0  0  0
    2.4966    2.5985    0.0000 C   0  0  0  0  0  0  0  0  0  0  0  0
    4.0251    1.6814    0.0000 O   0  0  0  0  0  0  0  0  0  0  0  0
    1.5285    2.5985    0.0000 C   0  0  0  0  0  0  0  0  0  0  0  0
    0.0000    1.6814    0.0000 C   0  0  0  0  0  0  0  0  0  0  0  0
  2  1  2  0  0  0  0 
  1  3  1  0  0  0  0 
  1  4  1  0  0  0  0 
  5  2  1  0  0  0  0 
  3  6  2  0  0  0  0 
  3  7  1  0  0  0  0 
  8  5  2  0  0  0  0 
  5  9  1  0  0  0  0 
  6  8  1  0  0  0  0 
M  END
> <Name>
p-Cresol, 2-bromo-

> <Source>
NIST2DMolFile

> <Tox>
3.600

> <CAS>
6627-55-0

$$$$

  CDK

  9  9  0  0  0  0  0  0  0  0999 V2000
    0.0000    1.4922    0.0000 C   0  0  0  0  0  0  0  0  0  0  0  0
    0.8953    1.9896    0.0000 C   0  0  0  0  0  0  0  0  0  0  0  0
    0.0000    0.4974    0.0000 C   0  0  0  0  0  0  0  0  0  0  0  0
    1.7409    1.4922    0.0000 C   0  0  0  0  0  0  0  0  0  0  0  0
    0.8953    2.9844    0.0000 Br  0  0  0  0  0  0  0  0  0  0  0  0
    0.8953    0.0000    0.0000 C   0  0  0  0  0  0  0  0  0  0  0  0
    1.7409    0.4974    0.0000 C   0  0  0  0  0  0  0  0  0  0  0  0
    2.5864    1.9896    0.0000 C   0  0  0  0  0  0  0  0  0  0  0  0
    3.4818    1.4922    0.0000 O   0  0  0  0  0  0  0  0  0  0  0  0
  1  2  2  0  0  0  0 
  3  1  1  0  0  0  0 
  2  4  1  0  0  0  0 
  2  5  1  0  0  0  0 
  6  3  2  0  0  0  0 
  4  7  2  0  0  0  0 
  4  8  1  0  0  0  0 
  7  6  1  0  0  0  0 
  8  9  2  0  0  0  0 
M  END
> <Name>
Benzaldehyde, 2-bromo-

> <Source>
NIST2DMolFile

> <Tox>
3.477

> <CAS>
6630-33-7

$$$$

  CDK

  8  8  0  0  0  0  0  0  0  0999 V2000
    1.9954   -3.4560    0.0000 N   0  0  0  0  0  0  0  0  0  0  0  0
    1.3289   -2.3027    0.0000 C   0  0  0  0  0  0  0  0  0  0  0  0
    3.3243   -3.4560    0.0000 C   0  0  0  0  0  0  0  0  0  0  0  0
    0.0000   -2.3027    0.0000 Cl  0  0  0  0  0  0  0  0  0  0  0  0
    1.9954   -1.1533    0.0000 C   0  0  0  0  0  0  0  0  0  0  0  0
    3.9907   -2.3027    0.0000 C   0  0  0  0  0  0  0  0  0  0  0  0
    1.3289   -0.0000    0.0000 O   0  0  0  0  0  0  0  0  0  0  0  0
    3.3243   -1.1533    0.0000 C   0  0  0  0  0  0  0  0  0  0  0  0
  1  2  2  0  0  0  0 
  1  3  1  0  0  0  0 
  2  4  1  0  0  0  0 
  2  5  1  0  0  0  0 
  6  3  2  0  0  0  0 
  5  7  1  0  0  0  0 
  5  8  2  0  0  0  0 
  8  6  1  0  0  0  0 
M  END
> <Name>
3-Pyridinol, 2-chloro-

> <Source>
DSSTox2DMolFile

> <Tox>
2.990

> <CAS>
6636-78-8

$$$$

  CDK

 12 12  0  0  0  0  0  0  0  0999 V2000
    2.6224    1.5129    0.0000 C   0  0  0  0  0  0  0  0  0  0  0  0
    2.6224    2.5215    0.0000 C   0  0  0  0  0  0  0  0  0  0  0  0
    1.7650    1.0086    0.0000 C   0  0  0  0  0  0  0  0  0  0  0  0
    1.7650    3.0258    0.0000 C   0  0  0  0  0  0  0  0  0  0  0  0
    3.4797    2.9754    0.0000 N   0  0  0  0  0  0  0  0  0  0  0  0
    0.9077    1.5129    0.0000 C   0  0  0  0  0  0  0  0  0  0  0  0
    1.7650    0.0000    0.0000 Cl  0  0  0  0  0  0  0  0  0  0  0  0
    0.9077    2.5215    0.0000 C   0  0  0  0  0  0  0  0  0  0  0  0
    1.7650    4.0344    0.0000 N   0  0  0  0  0  0  0  0  0  0  0  0
    4.3370    2.5215    0.0000 O   0  0  0  0  0  0  0  0  0  0  0  0
    3.4797    3.9840    0.0000 O   0  0  0  0  0  0  0  0  0  0  0  0
    0.0000    1.0086    0.0000 Cl  0  0  0  0  0  0  0  0  0  0  0  0
  2  1  2  0  0  0  0 
  1  3  1  0  0  0  0 
  4  2  1  0  0  0  0 
  2  5  1  0  0  0  0 
  3  6  2  0  0  0  0 
  3  7  1  0  0  0  0 
  8  4  2  0  0  0  0 
  4  9  1  0  0  0  0 
  5 10  2  0  0  0  0 
  5 11  2  0  0  0  0 
  6  8  1  0  0  0  0 
  6 12  1  0  0  0  0 
M  END
> <Name>
4,5-Dichloro-2-nitroaniline

> <Source>
NIST2DMolFile

> <Tox>
4.660

> <CAS>
6641-64-1

$$$$

  CDK

 15 15  0  0  0  0  0  0  0  0999 V2000
    5.9863   -1.1484    0.0000 O   0  0  0  0  0  0  0  0  0  0  0  0
    6.6456   -2.3073    0.0000 C   0  0  0  0  0  0  0  0  0  0  0  0
    5.9863   -3.4557    0.0000 O   0  0  0  0  0  0  0  0  0  0  0  0
    7.9747   -2.3073    0.0000 C   0  0  0  0  0  0  0  0  0  0  0  0
    4.6572   -3.4557    0.0000 C   0  0  0  0  0  0  0  0  0  0  0  0
    8.6339   -1.1484    0.0000 C   0  0  0  0  0  0  0  0  0  0  0  0
    8.6339   -3.4557    0.0000 C   0  0  0  0  0  0  0  0  0  0  0  0
    3.9873   -2.3073    0.0000 C   0  0  0  0  0  0  0  0  0  0  0  0
    9.9630   -1.1484    0.0000 C   0  0  0  0  0  0  0  0  0  0  0  0
    9.9630   -3.4557    0.0000 C   0  0  0  0  0  0  0  0  0  0  0  0
    2.6582   -2.3073    0.0000 C   0  0  0  0  0  0  0  0  0  0  0  0
   10.6329   -2.3073    0.0000 C   0  0  0  0  0  0  0  0  0  0  0  0
    1.9990   -1.1484    0.0000 C   0  0  0  0  0  0  0  0  0  0  0  0
    0.6699   -1.1484    0.0000 C   0  0  0  0  0  0  0  0  0  0  0  0
    0.0000   -0.0000    0.0000 C   0  0  0  0  0  0  0  0  0  0  0  0
  1  2  2  0  0  0  0 
  2  3  1  0  0  0  0 
  2  4  1  0  0  0  0 
  3  5  1  0  0  0  0 
  4  6  2  0  0  0  0 
  4  7  1  0  0  0  0 
  5  8  1  0  0  0  0 
  6  9  1  0  0  0  0 
 10  7  2  0  0  0  0 
  8 11  1  0  0  0  0 
  9 12  2  0  0  0  0 
 12 10  1  0  0  0  0 
 11 13  1  0  0  0  0 
 13 14  1  0  0  0  0 
 14 15  1  0  0  0  0 
M  END
> <Name>
Benzoic acid, hexyl ester

> <Source>
DSSTox2DMolFile

> <Tox>
4.940

> <CAS>
6789-88-4

$$$$

  CDK

 14 13  0  0  0  0  0  0  0  0999 V2000
    4.3171    2.0080    0.0000 C   0  0  0  0  0  0  0  0  0  0  0  0
    3.4638    1.5060    0.0000 C   0  0  0  0  0  0  0  0  0  0  0  0
    5.2207    1.5060    0.0000 O   0  0  0  0  0  0  0  0  0  0  0  0
    4.3171    3.0120    0.0000 O   0  0  0  0  0  0  0  0  0  0  0  0
    2.6104    2.0080    0.0000 C   0  0  0  0  0  0  0  0  0  0  0  0
    3.4638    0.5020    0.0000 C   0  0  0  0  0  0  0  0  0  0  0  0
    6.0741    2.0080    0.0000 C   0  0  0  0  0  0  0  0  0  0  0  0
    1.7068    1.5060    0.0000 O   0  0  0  0  0  0  0  0  0  0  0  0
    2.6104    3.0120    0.0000 O   0  0  0  0  0  0  0  0  0  0  0  0
    4.3171    0.0000    0.0000 C   0  0  0  0  0  0  0  0  0  0  0  0
    2.6104    0.0000    0.0000 C   0  0  0  0  0  0  0  0  0  0  0  0
    6.9275    1.5060    0.0000 C   0  0  0  0  0  0  0  0  0  0  0  0
    0.8534    2.0080    0.0000 C   0  0  0  0  0  0  0  0  0  0  0  0
    0.0000    1.5060    0.0000 C   0  0  0  0  0  0  0  0  0  0  0  0
  1  2  1  0  0  0  0 
  1  3  1  0  0  0  0 
  1  4  2  0  0  0  0 
  2  5  1  0  0  0  0 
  2  6  2  0  0  0  0 
  3  7  1  0  0  0  0 
  5  8  1  0  0  0  0 
  5  9  2  0  0  0  0 
  6 10  1  0  0  0  0 
  6 11  1  0  0  0  0 
  7 12  1  0  0  0  0 
  8 13  1  0  0  0  0 
 13 14  1  0  0  0  0 
M  END
> <Name>
Propanedioic acid, (1-methylethylidene)-, diethyl ester

> <Source>
NIST2DMolFile

> <Tox>
2.927

> <CAS>
6802-75-1

$$$$

  CDK

  8  7  0  0  0  0  0  0  0  0999 V2000
    2.5986    1.4992    0.0000 C   0  0  0  0  0  0  0  0  0  0  0  0
    1.7491    0.9995    0.0000 C   0  0  0  0  0  0  0  0  0  0  0  0
    3.4482    0.9995    0.0000 C   0  0  0  0  0  0  0  0  0  0  0  0
    0.8495    1.4992    0.0000 C   0  0  0  0  0  0  0  0  0  0  0  0
    1.7491    0.0000    0.0000 O   0  0  0  0  0  0  0  0  0  0  0  0
    4.3477    1.4992    0.0000 C   0  0  0  0  0  0  0  0  0  0  0  0
    0.0000    0.9995    0.0000 O   0  0  0  0  0  0  0  0  0  0  0  0
    5.1972    0.9995    0.0000 C   0  0  0  0  0  0  0  0  0  0  0  0
  1  2  1  0  0  0  0 
  1  3  1  0  0  0  0 
  2  4  1  0  0  0  0 
  2  5  1  0  0  0  0 
  3  6  1  0  0  0  0 
  4  7  1  0  0  0  0 
  6  8  1  0  0  0  0 
M  END
> <Name>
1,2-Hexanediol

> <Source>
NIST2DMolFile

> <Tox>
1.733

> <CAS>
6920-22-5

$$$$

  CDK

 12 12  0  0  0  0  0  0  0  0999 V2000
    2.4849   -1.7763    0.0019 O   0  0  0  0  0  0  0  0  0  0  0  0
    2.1865   -0.5590    0.0005 N   0  0  0  0  0  0  0  0  0  0  0  0
    3.0562    0.3433   -0.0002 O   0  0  0  0  0  0  0  0  0  0  0  0
    0.8124   -0.1887   -0.0010 C   0  0  0  0  0  0  0  0  0  0  0  0
    0.4265    1.1518   -0.0009 C   0  0  0  0  0  0  0  0  0  0  0  0
   -0.1557   -1.1931   -0.0008 C   0  0  0  0  0  0  0  0  0  0  0  0
    1.3879    2.1878    0.0001 N   0  0  0  0  0  0  0  0  0  0  0  0
   -0.9272    1.4880   -0.0005 C   0  0  0  0  0  0  0  0  0  0  0  0
   -1.5095   -0.8568   -0.0004 C   0  0  0  0  0  0  0  0  0  0  0  0
   -1.8952    0.4837   -0.0002 C   0  0  0  0  0  0  0  0  0  0  0  0
   -2.5286   -1.9486   -0.0009 C   0  0  0  0  0  0  0  0  0  0  0  0
   -3.3382    0.8680    0.0024 C   0  0  0  0  0  0  0  0  0  0  0  0
  1  2  1  0  0  0  0 
  3  2  2  0  0  0  0 
  2  4  1  0  0  0  0 
  4  5  2  0  0  0  0 
  4  6  1  0  0  0  0 
  7  5  1  0  0  0  0 
  5  8  1  0  0  0  0 
  9  6  2  0  0  0  0 
 10  8  2  0  0  0  0 
  9 10  1  0  0  0  0 
  9 11  1  0  0  0  0 
 10 12  1  0  0  0  0 
M  CHG  1   1  -1
M  CHG  1   2   1
M  END
> <Name>
4,5-dimethyl-2-nitroaniline

> <Source>
Chemidplus3DMolFile

> <Tox>
3.450

> <CAS>
6972-71-0

$$$$

  CDK

  9  9  0  0  0  0  0  0  0  0999 V2000
   -0.4051    0.2128    0.0000 N   0  0  0  0  0  0  0  0  0  0  0  0
    0.3486   -0.1227    0.0000 C   0  0  0  0  0  0  0  0  0  0  0  0
   -0.9571   -0.4003    0.0000 C   0  0  0  0  0  0  0  0  0  0  0  0
    0.2624   -0.9432    0.0000 C   0  0  0  0  0  0  0  0  0  0  0  0
    1.0631    0.2898    0.0000 C   0  0  0  0  0  0  0  0  0  0  0  0
   -0.5446   -1.1148    0.0000 C   0  0  0  0  0  0  0  0  0  0  0  0
   -1.7776   -0.3140    0.0000 C   0  0  0  0  0  0  0  0  0  0  0  0
    1.0631    1.1148    0.0000 O   0  0  0  0  0  0  0  0  0  0  0  0
    1.7776   -0.1227    0.0000 C   0  0  0  0  0  0  0  0  0  0  0  0
  1  2  1  0  0  0  0 
  1  3  1  0  0  0  0 
  2  4  2  0  0  0  0 
  2  5  1  0  0  0  0 
  6  3  2  0  0  0  0 
  3  7  1  0  0  0  0 
  4  6  1  0  0  0  0 
  5  8  2  0  0  0  0 
  5  9  1  0  0  0  0 
M  END
> <Name>
Ketone,methyl 5-methylpyrrol-2-yl (6CI,7CI,8CI)

> <Source>
Name2DMolFile

> <Tox>
2.170

> <CAS>
6982-72-5

$$$$

  CDK

 12 12  0  0  0  0  0  0  0  0999 V2000
    0.0500    2.5996    0.0000 O   0  0  0  0  0  0  0  0  0  0  0  0
    0.4999    1.7498    0.0000 N   0  0  0  0  0  0  0  0  0  0  0  0
    0.0000    0.8999    0.0000 O   0  0  0  0  0  0  0  0  0  0  0  0
    1.5498    1.7498    0.0000 C   0  0  0  0  0  0  0  0  0  0  0  0
    2.0497    2.5996    0.0000 C   0  0  0  0  0  0  0  0  0  0  0  0
    2.0497    0.8999    0.0000 C   0  0  0  0  0  0  0  0  0  0  0  0
    1.5498    3.4995    0.0000 O   0  0  0  0  0  0  0  0  0  0  0  0
    3.0496    2.5996    0.0000 C   0  0  0  0  0  0  0  0  0  0  0  0
    3.0496    0.8999    0.0000 C   0  0  0  0  0  0  0  0  0  0  0  0
    3.5495    1.7498    0.0000 C   0  0  0  0  0  0  0  0  0  0  0  0
    3.5495    0.0000    0.0000 Cl  0  0  0  0  0  0  0  0  0  0  0  0
    4.5494    1.7498    0.0000 C   0  0  0  0  0  0  0  0  0  0  0  0
  1  2  2  0  0  0  0 
  2  3  2  0  0  0  0 
  2  4  1  0  0  0  0 
  5  4  2  0  0  0  0 
  4  6  1  0  0  0  0 
  5  7  1  0  0  0  0 
  8  5  1  0  0  0  0 
  6  9  2  0  0  0  0 
 10  8  2  0  0  0  0 
  9 10  1  0  0  0  0 
  9 11  1  0  0  0  0 
 10 12  1  0  0  0  0 
M  END
> <Name>
Phenol, 4-chloro-5-methyl-2-nitro-

> <Source>
NIST2DMolFile

> <Tox>
4.630

> <CAS>
7147-89-9

$$$$

  CDK

 11 11  0  0  0  0  0  0  0  0999 V2000
    2.5294    0.9106    0.0000 C   0  0  0  0  0  0  0  0  0  0  0  0
    1.5176    0.9106    0.0000 C   0  0  0  0  0  0  0  0  0  0  0  0
    3.0353    1.7706    0.0000 C   0  0  0  0  0  0  0  0  0  0  0  0
    1.0118    1.7706    0.0000 C   0  0  0  0  0  0  0  0  0  0  0  0
    1.0118    0.0000    0.0000 C   0  0  0  0  0  0  0  0  0  0  0  0
    2.5294    2.6306    0.0000 C   0  0  0  0  0  0  0  0  0  0  0  0
    3.9965    1.7706    0.0000 N   0  0  0  0  0  0  0  0  0  0  0  0
    1.5176    2.6306    0.0000 C   0  0  0  0  0  0  0  0  0  0  0  0
    0.0000    1.7706    0.0000 Br  0  0  0  0  0  0  0  0  0  0  0  0
    4.5023    2.6306    0.0000 O   0  0  0  0  0  0  0  0  0  0  0  0
    4.4518    0.9106    0.0000 O   0  0  0  0  0  0  0  0  0  0  0  0
  2  1  2  0  0  0  0 
  1  3  1  0  0  0  0 
  4  2  1  0  0  0  0 
  2  5  1  0  0  0  0 
  3  6  2  0  0  0  0 
  3  7  1  0  0  0  0 
  8  4  2  0  0  0  0 
  4  9  1  0  0  0  0 
  6  8  1  0  0  0  0 
  7 10  2  0  0  0  0 
  7 11  2  0  0  0  0 
M  END
> <Name>
2-Bromo-5-nitrotoluene

> <Source>
NIST2DMolFile

> <Tox>
4.160

> <CAS>
7149-70-4

$$$$

  CDK

 13 13  0  0  0  0  0  0  0  0999 V2000
    1.9932    3.4754    0.0000 C   0  0  0  0  0  0  0  0  0  0  0  0
    2.9643    3.4754    0.0000 C   0  0  0  0  0  0  0  0  0  0  0  0
    1.4822    2.6577    0.0000 C   0  0  0  0  0  0  0  0  0  0  0  0
    3.4754    2.6577    0.0000 C   0  0  0  0  0  0  0  0  0  0  0  0
    1.9932    1.7377    0.0000 C   0  0  0  0  0  0  0  0  0  0  0  0
    0.4600    2.6577    0.0000 C   0  0  0  0  0  0  0  0  0  0  0  0
    2.9643    1.7377    0.0000 C   0  0  0  0  0  0  0  0  0  0  0  0
    4.4976    2.6577    0.0000 C   0  0  0  0  0  0  0  0  0  0  0  0
    0.0000    1.7377    0.0000 O   0  0  0  0  0  0  0  0  0  0  0  0
    0.0000    3.4754    0.0000 O   0  0  0  0  0  0  0  0  0  0  0  0
    5.5198    2.6577    0.0000 N   0  0  0  0  0  0  0  0  0  0  0  0
    0.5111    0.8689    0.0000 C   0  0  0  0  0  0  0  0  0  0  0  0
    0.0511    0.0000    0.0000 C   0  0  0  0  0  0  0  0  0  0  0  0
  2  1  2  0  0  0  0 
  1  3  1  0  0  0  0 
  4  2  1  0  0  0  0 
  3  5  2  0  0  0  0 
  3  6  1  0  0  0  0 
  7  4  2  0  0  0  0 
  4  8  1  0  0  0  0 
  5  7  1  0  0  0  0 
  6  9  1  0  0  0  0 
  6 10  2  0  0  0  0 
  8 11  3  0  0  0  0 
 12  9  1  0  0  0  0 
 12 13  1  0  0  0  0 
M  END
> <Name>
Ethyl 4-cyanobenzoate

> <Source>
NIST2DMolFile

> <Tox>
3.370

> <CAS>
7153-22-2

$$$$

  CDK

  9  9  0  0  0  0  0  0  0  0999 V2000
    0.0000    0.0000    0.0000 N   0  0  0  0  0  0  0  0  0  0  0  0
    0.8400   -0.8000    0.0000 C   0  0  0  0  0  0  0  0  0  0  0  0
    1.8800   -1.8000    0.0000 C   0  0  0  0  0  0  0  0  0  0  0  0
    3.1800   -1.4200    0.0000 C   0  0  0  0  0  0  0  0  0  0  0  0
    4.2200   -2.4400    0.0000 C   0  0  0  0  0  0  0  0  0  0  0  0
    5.6000   -2.2800    0.0000 C   0  0  0  0  0  0  0  0  0  0  0  0
    3.8400   -3.7400    0.0000 O   0  0  0  0  0  0  0  0  0  0  0  0
    6.1200   -3.5600    0.0000 C   0  0  0  0  0  0  0  0  0  0  0  0
    5.0200   -4.4200    0.0000 C   0  0  0  0  0  0  0  0  0  0  0  0
  1  2  3  0  0  0  0 
  2  3  1  0  0  0  0 
  3  4  2  0  0  0  0 
  4  5  1  0  0  0  0 
  5  6  2  0  0  0  0 
  5  7  1  0  0  0  0 
  6  8  1  0  0  0  0 
  7  9  1  0  0  0  0 
  8  9  2  0  0  0  0 
M  END
> <Name>
(E)-3-(furan-2-yl)prop-2-enenitrile

> <Source>
NIH3DMolFile

> <Tox>
2.690

> <CAS>
7187-01-1

$$$$

  CDK

  6  5  0  0  0  0  0  0  0  0999 V2000
    0.0000    0.0000    0.0000 C   0  0  0  0  0  0  0  0  0  0  0  0
    0.8089    0.5055    0.0000 N   0  0  0  0  0  0  0  0  0  0  0  0
    1.7188    0.0000    0.0000 C   0  0  0  0  0  0  0  0  0  0  0  0
    0.8089    1.5166    0.0000 C   0  0  0  0  0  0  0  0  0  0  0  0
    2.5782    0.5055    0.0000 C   0  0  0  0  0  0  0  0  0  0  0  0
    3.4376    1.0111    0.0000 C   0  0  0  0  0  0  0  0  0  0  0  0
  1  2  1  0  0  0  0 
  2  3  1  0  0  0  0 
  2  4  1  0  0  0  0 
  3  5  1  0  0  0  0 
  5  6  3  0  0  0  0 
M  END
> <Name>
2-Propyn-1-amine, N,N-dimethyl-

> <Source>
NIST2DMolFile

> <Tox>
1.855

> <CAS>
7223-38-3

$$$$

  CDK

 14 14  0  0  0  0  0  0  0  0999 V2000
    1.5914   -0.7430   -0.6595 O   0  0  0  0  0  0  0  0  0  0  0  0
    2.5072    0.3068   -0.3801 C   0  0  0  0  0  0  0  0  0  0  0  0
    0.2654   -0.4854   -0.4266 C   0  0  0  0  0  0  0  0  0  0  0  0
    3.8473   -0.3004    0.0101 C   0  0  0  0  0  0  0  0  0  0  0  0
   -0.2155    0.8126   -0.5554 C   0  0  0  0  0  0  0  0  0  0  0  0
   -0.5845   -1.5243   -0.0647 C   0  0  0  0  0  0  0  0  0  0  0  0
    4.8785    0.7749    0.3405 C   0  0  0  0  0  0  0  0  0  0  0  0
   -1.5648    1.0753   -0.3187 C   0  0  0  0  0  0  0  0  0  0  0  0
   -1.9339   -1.2614    0.1717 C   0  0  0  0  0  0  0  0  0  0  0  0
    6.2022    0.1638    0.7713 C   0  0  0  0  0  0  0  0  0  0  0  0
   -2.4240    0.0384    0.0446 C   0  0  0  0  0  0  0  0  0  0  0  0
   -3.7976    0.3048    0.2867 N   0  0  0  0  0  0  0  0  0  0  0  0
   -4.2189    1.4809    0.1680 O   0  0  0  0  0  0  0  0  0  0  0  0
   -4.5527   -0.6430    0.6121 O   0  0  0  0  0  0  0  0  0  0  0  0
  1  2  1  0  0  0  0 
  1  3  1  0  0  0  0 
  4  2  1  0  0  0  0 
  3  5  2  0  0  0  0 
  3  6  1  0  0  0  0 
  4  7  1  0  0  0  0 
  5  8  1  0  0  0  0 
  6  9  2  0  0  0  0 
  7 10  1  0  0  0  0 
 11  8  2  0  0  0  0 
 11  9  1  0  0  0  0 
 12 11  1  0  0  0  0 
 13 12  1  0  0  0  0 
 14 12  2  0  0  0  0 
M  CHG  1  12   1
M  CHG  1  13  -1
M  END
> <Name>
1-butoxy-4-nitrobenzene

> <Source>
Chemidplus3DMolFile

> <Tox>
4.420

> <CAS>
7244-78-2

$$$$

  CDK

 11 12  0  0  0  0  0  0  0  0999 V2000
    3.4609    1.5047    0.0000 C   0  0  0  0  0  0  0  0  0  0  0  0
    4.3136    2.0063    0.0000 C   0  0  0  0  0  0  0  0  0  0  0  0
    2.6082    2.0063    0.0000 N   0  0  0  0  0  0  0  0  0  0  0  0
    3.4609    0.5016    0.0000 C   0  0  0  0  0  0  0  0  0  0  0  0
    1.7054    1.5047    0.0000 C   0  0  0  0  0  0  0  0  0  0  0  0
    2.6082    0.0000    0.0000 N   0  0  0  0  0  0  0  0  0  0  0  0
    1.7054    0.5016    0.0000 C   0  0  0  0  0  0  0  0  0  0  0  0
    0.8527    2.0063    0.0000 C   0  0  0  0  0  0  0  0  0  0  0  0
    0.8527    0.0000    0.0000 C   0  0  0  0  0  0  0  0  0  0  0  0
    0.0000    1.5047    0.0000 C   0  0  0  0  0  0  0  0  0  0  0  0
    0.0000    0.5016    0.0000 C   0  0  0  0  0  0  0  0  0  0  0  0
  1  2  1  0  0  0  0 
  3  1  2  0  0  0  0 
  1  4  1  0  0  0  0 
  5  3  1  0  0  0  0 
  4  6  2  0  0  0  0 
  5  7  2  0  0  0  0 
  8  5  1  0  0  0  0 
  6  7  1  0  0  0  0 
  7  9  1  0  0  0  0 
 10  8  2  0  0  0  0 
  9 11  2  0  0  0  0 
 11 10  1  0  0  0  0 
M  END
> <Name>
Quinoxaline, 2-methyl-

> <Source>
NIST2DMolFile

> <Tox>
3.020

> <CAS>
7251-61-8

$$$$

  CDK

  8  8  0  0  0  0  0  0  0  0999 V2000
    3.3140    0.4088    0.0004 Cl  0  0  0  0  0  0  0  0  0  0  0  0
    1.6434    0.0262   -0.0008 C   0  0  0  0  0  0  0  0  0  0  0  0
    0.4743    1.2775   -0.0002 S   0  0  0  0  0  0  0  0  0  0  0  0
    1.0633   -1.2232   -0.0002 C   0  0  0  0  0  0  0  0  0  0  0  0
   -0.8130    0.1484    0.0006 C   0  0  0  0  0  0  0  0  0  0  0  0
   -0.3598   -1.1523    0.0005 C   0  0  0  0  0  0  0  0  0  0  0  0
   -2.1577    0.6269    0.0003 C   0  0  0  0  0  0  0  0  0  0  0  0
   -3.1646   -0.1123   -0.0005 O   0  0  0  0  0  0  0  0  0  0  0  0
  1  2  1  0  0  0  0 
  3  2  1  0  0  0  0 
  4  2  2  0  0  0  0 
  3  5  1  0  0  0  0 
  6  4  1  0  0  0  0 
  5  6  2  0  0  0  0 
  5  7  1  0  0  0  0 
  8  7  2  0  0  0  0 
M  END
> <Name>
5-chlorothiophene-2-carbaldehyde

> <Source>
Chemidplus3DMolFile

> <Tox>
3.620

> <CAS>
7283-96-7

$$$$

  CDK

 10  9  0  0  0  0  0  0  0  0999 V2000
    3.4592    1.5040    0.0000 O   0  0  0  0  0  0  0  0  0  0  0  0
    2.6069    1.0027    0.0000 C   0  0  0  0  0  0  0  0  0  0  0  0
    4.3116    1.0027    0.0000 C   0  0  0  0  0  0  0  0  0  0  0  0
    1.7045    1.5040    0.0000 C   0  0  0  0  0  0  0  0  0  0  0  0
    2.6069    0.0000    0.0000 O   0  0  0  0  0  0  0  0  0  0  0  0
    5.2140    1.5040    0.0000 C   0  0  0  0  0  0  0  0  0  0  0  0
    0.8523    1.0027    0.0000 C   0  0  0  0  0  0  0  0  0  0  0  0
    6.0662    1.0027    0.0000 C   0  0  0  0  0  0  0  0  0  0  0  0
    0.0000    1.5040    0.0000 C   0  0  0  0  0  0  0  0  0  0  0  0
    6.9185    1.5040    0.0000 C   0  0  0  0  0  0  0  0  0  0  0  0
  1  2  1  0  0  0  0 
  1  3  1  0  0  0  0 
  2  4  1  0  0  0  0 
  2  5  2  0  0  0  0 
  3  6  1  0  0  0  0 
  4  7  2  0  0  0  0 
  6  8  1  0  0  0  0 
  7  9  1  0  0  0  0 
  8 10  1  0  0  0  0 
M  END
> <Name>
Crotonicacid, butyl ester (6CI,7CI,8CI)

> <Source>
NIST2DMolFile

> <Tox>
2.840

> <CAS>
7299-91-4

$$$$

  CDK

 12 11  0  0  0  0  0  0  0  0999 V2000
   12.6993   -0.0000    0.0000 C   0  0  0  0  0  0  0  0  0  0  0  0
   11.5436   -0.6604    0.0000 C   0  0  0  0  0  0  0  0  0  0  0  0
   10.3880   -0.0000    0.0000 C   0  0  0  0  0  0  0  0  0  0  0  0
    9.2324   -0.6604    0.0000 C   0  0  0  0  0  0  0  0  0  0  0  0
    8.0767   -0.0000    0.0000 C   0  0  0  0  0  0  0  0  0  0  0  0
    6.9211   -0.6604    0.0000 C   0  0  0  0  0  0  0  0  0  0  0  0
    5.7782   -0.0000    0.0000 C   0  0  0  0  0  0  0  0  0  0  0  0
    4.6225   -0.6604    0.0000 C   0  0  0  0  0  0  0  0  0  0  0  0
    3.4669   -0.0000    0.0000 C   0  0  0  0  0  0  0  0  0  0  0  0
    2.3113   -0.6604    0.0000 C   0  0  0  0  0  0  0  0  0  0  0  0
    1.1556   -0.0000    0.0000 C   0  0  0  0  0  0  0  0  0  0  0  0
    0.0000   -0.6604    0.0000 N   0  0  0  0  0  0  0  0  0  0  0  0
  1  2  1  0  0  0  0 
  2  3  1  0  0  0  0 
  3  4  1  0  0  0  0 
  4  5  1  0  0  0  0 
  5  6  1  0  0  0  0 
  6  7  1  0  0  0  0 
  7  8  1  0  0  0  0 
  8  9  1  0  0  0  0 
  9 10  1  0  0  0  0 
 10 11  1  0  0  0  0 
 11 12  1  0  0  0  0 
M  END
> <Name>
1-Undecanamine

> <Source>
DSSTox2DMolFile

> <Tox>
5.328

> <CAS>
7307-55-3

$$$$

  CDK

 12 12  0  0  0  0  0  0  0  0999 V2000
    3.4984    2.9986    0.0000 O   0  0  0  0  0  0  0  0  0  0  0  0
    3.4984    1.9991    0.0000 C   0  0  0  0  0  0  0  0  0  0  0  0
    4.3480    1.4993    0.0000 O   0  0  0  0  0  0  0  0  0  0  0  0
    2.5988    1.4993    0.0000 C   0  0  0  0  0  0  0  0  0  0  0  0
    5.1976    1.9991    0.0000 C   0  0  0  0  0  0  0  0  0  0  0  0
    1.7492    1.9991    0.0000 C   0  0  0  0  0  0  0  0  0  0  0  0
    2.5988    0.4998    0.0000 C   0  0  0  0  0  0  0  0  0  0  0  0
    6.0971    1.4993    0.0000 C   0  0  0  0  0  0  0  0  0  0  0  0
    0.8996    1.4993    0.0000 C   0  0  0  0  0  0  0  0  0  0  0  0
    1.7492    0.0000    0.0000 C   0  0  0  0  0  0  0  0  0  0  0  0
    0.8996    0.4998    0.0000 C   0  0  0  0  0  0  0  0  0  0  0  0
    0.0000    0.0000    0.0000 Cl  0  0  0  0  0  0  0  0  0  0  0  0
  1  2  2  0  0  0  0 
  2  3  1  0  0  0  0 
  2  4  1  0  0  0  0 
  5  3  1  0  0  0  0 
  6  4  2  0  0  0  0 
  4  7  1  0  0  0  0 
  8  5  1  0  0  0  0 
  9  6  1  0  0  0  0 
  7 10  2  0  0  0  0 
 11  9  2  0  0  0  0 
 10 11  1  0  0  0  0 
 12 11  1  0  0  0  0 
M  END
> <Name>
ethyl 4-chlorobenzoate

> <Source>
NIST2DMolFile

> <Tox>
3.750

> <CAS>
7335-27-5

$$$$

  CDK

  6  5  0  0  0  0  0  0  0  0999 V2000
   -1.0717    0.2062    0.0000 C   0  0  0  0  0  0  0  0  0  0  0  0
   -0.3572   -0.2062    0.0000 C   0  0  0  0  0  0  0  0  0  0  0  0
   -1.7862   -0.2062    0.0000 Br  0  0  0  0  0  0  0  0  0  0  0  0
    0.3572    0.2062    0.0000 C   0  0  0  0  0  0  0  0  0  0  0  0
    1.0717   -0.2062    0.0000 C   0  0  0  0  0  0  0  0  0  0  0  0
    1.7862    0.2062    0.0000 C   0  0  0  0  0  0  0  0  0  0  0  0
  1  2  1  0  0  0  0 
  1  3  1  0  0  0  0 
  2  4  2  0  0  0  0 
  4  5  1  0  0  0  0 
  5  6  1  0  0  0  0 
M  END
> <Name>
trans-1-bromo-2-pentene

> <Source>
Name2DMolFile

> <Tox>
3.770

> <CAS>
7348-71-2

$$$$

  CDK

 11 10  0  0  0  0  0  0  0  0999 V2000
    3.7069   -0.8496   -0.1814 O   0  0  0  0  0  0  0  0  0  0  0  0
    2.8252    0.1761   -0.0364 C   0  0  0  0  0  0  0  0  0  0  0  0
    5.0391   -0.4691   -0.5414 C   0  0  0  0  0  0  0  0  0  0  0  0
    3.0538    1.3667   -0.1801 O   0  0  0  0  0  0  0  0  0  0  0  0
    1.5168   -0.4068    0.3303 C   0  0  0  0  0  0  0  0  0  0  0  0
    0.4605    0.3927    0.5288 C   0  0  0  0  0  0  0  0  0  0  0  0
   -0.9015   -0.1177    0.9051 C   0  0  0  0  0  0  0  0  0  0  0  0
   -1.9828    0.2460   -0.1187 C   0  0  0  0  0  0  0  0  0  0  0  0
   -3.3829   -0.2157    0.3000 C   0  0  0  0  0  0  0  0  0  0  0  0
   -4.4687    0.1515   -0.7146 C   0  0  0  0  0  0  0  0  0  0  0  0
   -5.8663   -0.2740   -0.2916 C   0  0  0  0  0  0  0  0  0  0  0  0
  1  2  1  0  0  0  0 
  1  3  1  0  0  0  0 
  4  2  2  0  0  0  0 
  5  2  1  0  0  0  0 
  6  5  2  0  0  0  0 
  7  6  1  0  0  0  0 
  8  7  1  0  0  0  0 
  9  8  1  0  0  0  0 
  9 10  1  0  0  0  0 
 10 11  1  0  0  0  0 
M  END
> <Name>
methyl (E)-oct-2-enoate

> <Source>
Chemidplus3DMolFile

> <Tox>
3.770

> <CAS>
7367-81-9

$$$$

  CDK

  8  7  0  0  0  0  0  0  0  0999 V2000
    0.0000   -1.1509    0.0000 C   0  0  0  0  0  0  0  0  0  0  0  0
    1.3305   -1.1509    0.0000 C   0  0  0  0  0  0  0  0  0  0  0  0
    2.6610   -1.1509    0.0000 C   0  0  0  0  0  0  0  0  0  0  0  0
    3.3263   -0.0000    0.0000 O   0  0  0  0  0  0  0  0  0  0  0  0
    3.3263   -2.3018    0.0000 C   0  0  0  0  0  0  0  0  0  0  0  0
    4.6568   -2.3018    0.0000 C   0  0  0  0  0  0  0  0  0  0  0  0
    5.3220   -1.1509    0.0000 C   0  0  0  0  0  0  0  0  0  0  0  0
    6.6525   -1.1509    0.0000 C   0  0  0  0  0  0  0  0  0  0  0  0
  1  2  3  0  0  0  0 
  2  3  1  0  0  0  0 
  3  4  1  0  0  0  0 
  3  5  1  0  0  0  0 
  5  6  1  0  0  0  0 
  6  7  1  0  0  0  0 
  7  8  1  0  0  0  0 
M  END
> <Name>
1-Heptyn-3-ol

> <Source>
DSSTox2DMolFile

> <Tox>
2.735

> <CAS>
7383-19-9

$$$$

  CDK

  9  8  0  0  0  0  0  0  0  0999 V2000
    2.5988    1.4993    0.0000 C   0  0  0  0  0  0  0  0  0  0  0  0
    1.7492    0.9995    0.0000 C   0  0  0  0  0  0  0  0  0  0  0  0
    3.4484    0.9995    0.0000 C   0  0  0  0  0  0  0  0  0  0  0  0
    0.8496    1.4993    0.0000 C   0  0  0  0  0  0  0  0  0  0  0  0
    1.7492    0.0000    0.0000 O   0  0  0  0  0  0  0  0  0  0  0  0
    4.3480    1.4993    0.0000 C   0  0  0  0  0  0  0  0  0  0  0  0
    3.4484    0.0000    0.0000 O   0  0  0  0  0  0  0  0  0  0  0  0
    0.0000    0.9995    0.0000 C   0  0  0  0  0  0  0  0  0  0  0  0
    5.1976    0.9995    0.0000 C   0  0  0  0  0  0  0  0  0  0  0  0
  1  2  1  0  0  0  0 
  1  3  1  0  0  0  0 
  2  4  1  0  0  0  0 
  2  5  2  0  0  0  0 
  3  6  1  0  0  0  0 
  3  7  2  0  0  0  0 
  4  8  1  0  0  0  0 
  6  9  1  0  0  0  0 
M  END
> <Name>
3,5-Heptanedione

> <Source>
NIST2DMolFile

> <Tox>
2.618

> <CAS>
7424-54-6

$$$$

  CDK

  9  8  0  0  0  0  0  0  0  0999 V2000
    3.4484    1.4993    0.0000 C   0  0  0  0  0  0  0  0  0  0  0  0
    2.5988    0.9995    0.0000 C   0  0  0  0  0  0  0  0  0  0  0  0
    4.3480    0.9995    0.0000 C   0  0  0  0  0  0  0  0  0  0  0  0
    3.4484    2.4988    0.0000 C   0  0  0  0  0  0  0  0  0  0  0  0
    1.7492    1.4993    0.0000 O   0  0  0  0  0  0  0  0  0  0  0  0
    2.5988    0.0000    0.0000 O   0  0  0  0  0  0  0  0  0  0  0  0
    5.1976    1.4993    0.0000 C   0  0  0  0  0  0  0  0  0  0  0  0
    0.8496    0.9995    0.0000 C   0  0  0  0  0  0  0  0  0  0  0  0
    0.0000    1.4993    0.0000 C   0  0  0  0  0  0  0  0  0  0  0  0
  1  2  1  0  0  0  0 
  1  3  1  0  0  0  0 
  1  4  1  0  0  0  0 
  2  5  1  0  0  0  0 
  2  6  2  0  0  0  0 
  3  7  1  0  0  0  0 
  5  8  1  0  0  0  0 
  8  9  1  0  0  0  0 
M  END
> <Name>
Butyric acid, 2-methyl-, ethyl ester (8CI)

> <Source>
NIST2DMolFile

> <Tox>
2.111

> <CAS>
7452-79-1

$$$$

  CDK

  7  6  0  0  0  0  0  0  0  0999 V2000
    2.5864    1.4922    0.0000 C   0  0  0  0  0  0  0  0  0  0  0  0
    3.4818    0.9948    0.0000 O   0  0  0  0  0  0  0  0  0  0  0  0
    1.7409    0.9948    0.0000 C   0  0  0  0  0  0  0  0  0  0  0  0
    2.5864    2.4870    0.0000 N   0  0  0  0  0  0  0  0  0  0  0  0
    1.7409    0.0000    0.0000 Cl  0  0  0  0  0  0  0  0  0  0  0  0
    0.8953    1.4922    0.0000 C   0  0  0  0  0  0  0  0  0  0  0  0
    0.0000    0.9948    0.0000 C   0  0  0  0  0  0  0  0  0  0  0  0
  1  2  2  0  0  0  0 
  1  3  1  0  0  0  0 
  1  4  1  0  0  0  0 
  3  5  1  0  0  0  0 
  3  6  1  0  0  0  0 
  7  6  1  0  0  0  0 
M  END
> <Name>
2-Chlorobutyramide

> <Source>
NIST2DMolFile

> <Tox>
1.783

> <CAS>
7462-73-9

$$$$

  CDK

 10 10  0  0  0  0  0  0  0  0999 V2000
    2.9657    0.0000   -0.0012 Br  0  0  0  0  0  0  0  0  0  0  0  0
    1.0614   -0.0004    0.0000 C   0  0  0  0  0  0  0  0  0  0  0  0
    0.3642    1.2078   -0.0003 C   0  0  0  0  0  0  0  0  0  0  0  0
    0.3637   -1.2083    0.0004 C   0  0  0  0  0  0  0  0  0  0  0  0
   -1.0307    1.2082   -0.0001 C   0  0  0  0  0  0  0  0  0  0  0  0
    1.0629    2.5297    0.0011 C   0  0  0  0  0  0  0  0  0  0  0  0
   -1.0312   -1.2078    0.0005 C   0  0  0  0  0  0  0  0  0  0  0  0
    1.0617   -2.5303    0.0004 C   0  0  0  0  0  0  0  0  0  0  0  0
   -1.7283    0.0004    0.0003 C   0  0  0  0  0  0  0  0  0  0  0  0
   -3.0894    0.0006   -0.0010 O   0  0  0  0  0  0  0  0  0  0  0  0
  1  2  1  0  0  0  0 
  3  2  2  0  0  0  0 
  4  2  1  0  0  0  0 
  3  5  1  0  0  0  0 
  3  6  1  0  0  0  0 
  4  7  2  0  0  0  0 
  4  8  1  0  0  0  0 
  5  9  2  0  0  0  0 
  7  9  1  0  0  0  0 
 10  9  1  0  0  0  0 
M  END
> <Name>
4-bromo-3,5-dimethylphenol

> <Source>
Chemidplus3DMolFile

> <Tox>
4.270

> <CAS>
7463-51-6

$$$$

  CDK

 10 10  0  0  0  0  0  0  0  0999 V2000
    2.4833    0.9123    0.0000 C   0  0  0  0  0  0  0  0  0  0  0  0
    1.5204    0.9123    0.0000 C   0  0  0  0  0  0  0  0  0  0  0  0
    2.9902    1.7231    0.0000 C   0  0  0  0  0  0  0  0  0  0  0  0
    0.9629    1.7231    0.0000 C   0  0  0  0  0  0  0  0  0  0  0  0
    0.9629    0.0000    0.0000 Cl  0  0  0  0  0  0  0  0  0  0  0  0
    2.4833    2.6354    0.0000 C   0  0  0  0  0  0  0  0  0  0  0  0
    3.9531    1.7231    0.0000 Br  0  0  0  0  0  0  0  0  0  0  0  0
    1.5204    2.6354    0.0000 C   0  0  0  0  0  0  0  0  0  0  0  0
    0.0000    1.7231    0.0000 O   0  0  0  0  0  0  0  0  0  0  0  0
    0.9629    3.4970    0.0000 C   0  0  0  0  0  0  0  0  0  0  0  0
  2  1  2  0  0  0  0 
  1  3  1  0  0  0  0 
  4  2  1  0  0  0  0 
  2  5  1  0  0  0  0 
  3  6  2  0  0  0  0 
  3  7  1  0  0  0  0 
  8  4  2  0  0  0  0 
  4  9  1  0  0  0  0 
  6  8  1  0  0  0  0 
  8 10  1  0  0  0  0 
M  END
> <Name>
o-Cresol, 4-bromo-6-chloro-

> <Source>
NIST2DMolFile

> <Tox>
4.280

> <CAS>
7530-27-0

$$$$

  CDK

  8  7  0  0  0  0  0  0  0  0999 V2000
    2.6466    0.0000    0.0000 N   0  0  0  0  0  0  0  0  0  0  0  0
    2.6466    1.0004    0.0000 C   0  0  0  0  0  0  0  0  0  0  0  0
    1.7756    1.5005    0.0000 C   0  0  0  0  0  0  0  0  0  0  0  0
    3.5128    1.5006    0.0000 C   0  0  0  0  0  0  0  0  0  0  0  0
    0.9145    1.0005    0.0000 C   0  0  0  0  0  0  0  0  0  0  0  0
    3.5128    2.4958    0.0000 O   0  0  0  0  0  0  0  0  0  0  0  0
    0.0000    1.4124    0.0000 C   0  0  0  0  0  0  0  0  0  0  0  0
    0.8047    0.0055    0.0000 C   0  0  0  0  0  0  0  0  0  0  0  0
  2  1  1  0  0  0  0 
  2  3  1  1  0  0  0 
  4  2  1  0  0  0  0 
  3  5  1  0  0  0  0 
  6  4  1  0  0  0  0 
  5  7  1  0  0  0  0 
  8  5  1  0  0  0  0 
M  END
> <Name>
1-Pentanol, 2-amino-4-methyl-, (S)-

> <Source>
NIST2DMolFile

> <Tox>
2.381

> <CAS>
7533-40-6

$$$$

  CDK

 11 11  0  0  0  0  0  0  0  0999 V2000
    3.4994   -1.3453   -0.0004 Br  0  0  0  0  0  0  0  0  0  0  0  0
    1.9094   -0.3234    0.0002 C   0  0  0  0  0  0  0  0  0  0  0  0
    0.6692   -0.9618    0.0010 C   0  0  0  0  0  0  0  0  0  0  0  0
    1.9766    1.0698   -0.0003 C   0  0  0  0  0  0  0  0  0  0  0  0
   -0.5038   -0.2069    0.0009 C   0  0  0  0  0  0  0  0  0  0  0  0
    0.8036    1.8246   -0.0004 C   0  0  0  0  0  0  0  0  0  0  0  0
   -1.7597   -0.8738   -0.0001 N   0  0  0  0  0  0  0  0  0  0  0  0
   -0.4366    1.1863    0.0001 C   0  0  0  0  0  0  0  0  0  0  0  0
   -1.7801   -2.1274   -0.0009 O   0  0  0  0  0  0  0  0  0  0  0  0
   -2.8097   -0.1886    0.0002 O   0  0  0  0  0  0  0  0  0  0  0  0
   -1.5684    1.9465   -0.0002 O   0  0  0  0  0  0  0  0  0  0  0  0
  1  2  1  0  0  0  0 
  3  2  2  0  0  0  0 
  2  4  1  0  0  0  0 
  5  3  1  0  0  0  0 
  6  4  2  0  0  0  0 
  7  5  1  0  0  0  0 
  5  8  2  0  0  0  0 
  8  6  1  0  0  0  0 
  9  7  1  0  0  0  0 
 10  7  2  0  0  0  0 
 11  8  1  0  0  0  0 
M  CHG  1   7   1
M  CHG  1   9  -1
M  END
> <Name>
4-bromo-2-nitrophenol

> <Source>
Chemidplus3DMolFile

> <Tox>
4.870

> <CAS>
7693-52-9

$$$$

  CDK

 13 14  0  0  0  0  0  0  0  0999 V2000
    1.4587    2.5654    0.0000 C   0  0  0  0  0  0  0  0  0  0  0  0
    1.9617    3.4708    0.0000 C   0  0  0  0  0  0  0  0  0  0  0  0
    1.9617    1.7102    0.0000 C   0  0  0  0  0  0  0  0  0  0  0  0
    2.9678    3.4708    0.0000 C   0  0  0  0  0  0  0  0  0  0  0  0
    2.9678    1.7102    0.0000 C   0  0  0  0  0  0  0  0  0  0  0  0
    1.4587    0.8551    0.0000 C   0  0  0  0  0  0  0  0  0  0  0  0
    3.5211    2.5654    0.0000 C   0  0  0  0  0  0  0  0  0  0  0  0
    3.5211    0.8551    0.0000 C   0  0  0  0  0  0  0  0  0  0  0  0
    1.9617    0.0000    0.0000 C   0  0  0  0  0  0  0  0  0  0  0  0
    0.5030    0.8551    0.0000 C   0  0  0  0  0  0  0  0  0  0  0  0
    2.9678    0.0000    0.0000 C   0  0  0  0  0  0  0  0  0  0  0  0
    4.4265    0.8551    0.0000 O   0  0  0  0  0  0  0  0  0  0  0  0
    0.0000    1.7102    0.0000 O   0  0  0  0  0  0  0  0  0  0  0  0
  2  1  2  0  0  0  0 
  1  3  1  0  0  0  0 
  4  2  1  0  0  0  0 
  5  3  2  0  0  0  0 
  3  6  1  0  0  0  0 
  7  4  2  0  0  0  0 
  5  7  1  0  0  0  0 
  8  5  1  0  0  0  0 
  6  9  2  0  0  0  0 
  6 10  1  0  0  0  0 
 11  8  2  0  0  0  0 
  8 12  1  0  0  0  0 
  9 11  1  0  0  0  0 
 10 13  2  0  0  0  0 
M  END
> <Name>
1-Naphthaldehyde,4-hydroxy- (6CI,7CI,8CI)

> <Source>
NIST2DMolFile

> <Tox>
4.050

> <CAS>
7770-45-8

$$$$

  CDK

 14 14  0  0  0  0  0  0  0  0999 V2000
    0.9477   -0.7257   -0.0000 C   0  0  0  0  0  0  0  0  0  0  0  0
   -0.0551    0.1769    0.0012 C   0  0  0  0  0  0  0  0  0  0  0  0
    2.3473   -0.2707    0.0011 C   0  0  0  0  0  0  0  0  0  0  0  0
   -1.4458   -0.2753    0.0001 C   0  0  0  0  0  0  0  0  0  0  0  0
    3.3894   -1.2030   -0.0002 C   0  0  0  0  0  0  0  0  0  0  0  0
    2.6419    1.0967   -0.0025 C   0  0  0  0  0  0  0  0  0  0  0  0
   -2.4485    0.6272    0.0013 O   0  0  0  0  0  0  0  0  0  0  0  0
   -1.6985   -1.4650   -0.0018 O   0  0  0  0  0  0  0  0  0  0  0  0
    4.6983   -0.7687    0.0004 C   0  0  0  0  0  0  0  0  0  0  0  0
    3.9555    1.5150   -0.0020 C   0  0  0  0  0  0  0  0  0  0  0  0
   -3.6707   -0.1132   -0.0002 C   0  0  0  0  0  0  0  0  0  0  0  0
    4.9816    0.5858    0.0026 C   0  0  0  0  0  0  0  0  0  0  0  0
   -4.8544    0.8562    0.0011 C   0  0  0  0  0  0  0  0  0  0  0  0
   -6.1629    0.0634   -0.0005 C   0  0  0  0  0  0  0  0  0  0  0  0
  1  2  2  0  0  0  0 
  1  3  1  0  0  0  0 
  2  4  1  0  0  0  0 
  3  5  2  0  0  0  0 
  3  6  1  0  0  0  0 
  4  7  1  0  0  0  0 
  4  8  2  0  0  0  0 
  5  9  1  0  0  0  0 
  6 10  2  0  0  0  0 
  7 11  1  0  0  0  0 
  9 12  2  0  0  0  0 
 10 12  1  0  0  0  0 
 11 13  1  0  0  0  0 
 13 14  1  0  0  0  0 
M  END
> <Name>
2-Propenoic acid, 3-phenyl-, propyl ester

> <Source>
NIH3DMolFile

> <Tox>
4.230

> <CAS>
7778-83-8

$$$$

  CDK

 11 11  0  0  0  0  0  0  0  0999 V2000
    1.9934   -1.1561    0.0000 C   0  0  0  0  0  0  0  0  0  0  0  0
    0.6618   -1.1561    0.0000 C   0  0  0  0  0  0  0  0  0  0  0  0
    2.6551   -0.0000    0.0000 C   0  0  0  0  0  0  0  0  0  0  0  0
    2.6551   -2.3043    0.0000 C   0  0  0  0  0  0  0  0  0  0  0  0
    0.0000   -0.0000    0.0000 O   0  0  0  0  0  0  0  0  0  0  0  0
    3.9867   -0.0000    0.0000 C   0  0  0  0  0  0  0  0  0  0  0  0
    3.9867   -2.3043    0.0000 C   0  0  0  0  0  0  0  0  0  0  0  0
    4.6485   -1.1561    0.0000 C   0  0  0  0  0  0  0  0  0  0  0  0
    5.9801   -1.1561    0.0000 O   0  0  0  0  0  0  0  0  0  0  0  0
    6.6419   -2.3043    0.0000 C   0  0  0  0  0  0  0  0  0  0  0  0
    7.9734   -2.3043    0.0000 C   0  0  0  0  0  0  0  0  0  0  0  0
  1  2  1  0  0  0  0 
  1  3  2  0  0  0  0 
  1  4  1  0  0  0  0 
  2  5  2  0  0  0  0 
  3  6  1  0  0  0  0 
  7  4  2  0  0  0  0 
  6  8  2  0  0  0  0 
  8  7  1  0  0  0  0 
  8  9  1  0  0  0  0 
  9 10  1  0  0  0  0 
 10 11  1  0  0  0  0 
M  END
> <Name>
Benzaldehyde, 4-ethoxy-

> <Source>
DSSTox2DMolFile

> <Tox>
3.073

> <CAS>
10031-82-0

$$$$

  CDK

 10  9  0  0  0  0  0  0  0  0999 V2000
    3.2845    2.6689    2.2143 O   0  0  0  0  0  0  0  0  0  0  0  0
    4.5200    3.1987    1.7295 C   0  0  0  0  0  0  0  0  0  0  0  0
    2.1278    3.0619    1.6074 C   0  0  0  0  0  0  0  0  0  0  0  0
    5.6364    2.5606    2.5687 C   0  0  0  0  0  0  0  0  0  0  0  0
    2.1726    3.8399    0.6742 O   0  0  0  0  0  0  0  0  0  0  0  0
    0.9079    2.4369    2.2226 C   0  0  0  0  0  0  0  0  0  0  0  0
    6.8745    3.4613    2.5461 C   0  0  0  0  0  0  0  0  0  0  0  0
    5.9711    1.1435    2.0918 C   0  0  0  0  0  0  0  0  0  0  0  0
    7.9374    2.9607    3.4997 C   0  0  0  0  0  0  0  0  0  0  0  0
    6.3174    1.0451    0.6221 C   0  0  0  0  0  0  0  0  0  0  0  0
  1  2  1  0  0  0  0 
  1  3  1  0  0  0  0 
  2  4  1  0  0  0  0 
  3  5  2  0  0  0  0 
  3  6  1  0  0  0  0 
  4  7  1  0  0  0  0 
  4  8  1  0  0  0  0 
  7  9  1  0  0  0  0 
  8 10  1  0  0  0  0 
M  END
> <Name>
Acetic acid, 2-ethylbutyl ester

> <Source>
NIST3DMolFile

> <Tox>
2.880

> <CAS>
10031-87-5

$$$$

  CDK

 13 12  0  0  0  0  0  0  0  0999 V2000
   -3.8898    0.2873   -0.0292 O   0  0  0  0  0  0  0  0  0  0  0  0
   -5.2184   -0.2447   -0.0490 C   0  0  0  0  0  0  0  0  0  0  0  0
   -2.8931   -0.6357    0.0255 C   0  0  0  0  0  0  0  0  0  0  0  0
   -6.2071    0.9000   -0.1101 C   0  0  0  0  0  0  0  0  0  0  0  0
   -3.0109   -1.8515    0.0589 O   0  0  0  0  0  0  0  0  0  0  0  0
   -1.5927   -0.0192    0.0413 C   0  0  0  0  0  0  0  0  0  0  0  0
   -0.5053    0.4905    0.0532 C   0  0  0  0  0  0  0  0  0  0  0  0
    0.8248    1.1148    0.0676 C   0  0  0  0  0  0  0  0  0  0  0  0
    1.9511    0.0797    0.0471 C   0  0  0  0  0  0  0  0  0  0  0  0
    3.3450    0.7166    0.0475 C   0  0  0  0  0  0  0  0  0  0  0  0
    4.4412   -0.3497   -0.0031 C   0  0  0  0  0  0  0  0  0  0  0  0
    5.8320    0.2836   -0.0325 C   0  0  0  0  0  0  0  0  0  0  0  0
    6.9232   -0.7717   -0.1173 C   0  0  0  0  0  0  0  0  0  0  0  0
  1  2  1  0  0  0  0 
  1  3  1  0  0  0  0 
  2  4  1  0  0  0  0 
  5  3  2  0  0  0  0 
  6  3  1  0  0  0  0 
  7  6  3  0  0  0  0 
  8  7  1  0  0  0  0 
  9  8  1  0  0  0  0 
 10  9  1  0  0  0  0 
 10 11  1  0  0  0  0 
 11 12  1  0  0  0  0 
 12 13  1  0  0  0  0 
M  END
> <Name>
ethyl non-2-ynoate

> <Source>
Chemidplus3DMolFile

> <Tox>
4.380

> <CAS>
10031-92-2

$$$$

  CDK

 13 12  0  0  0  0  0  0  0  0999 V2000
    4.9553    3.7903    6.3217 C   0  0  0  0  0  0  0  0  0  0  0  0
    4.4051    3.2674    5.0033 C   0  0  0  0  0  0  0  0  0  0  0  0
    5.7311    2.7170    7.0679 C   0  0  0  0  0  0  0  0  0  0  0  0
    3.3618    2.1820    5.2265 C   0  0  0  0  0  0  0  0  0  0  0  0
    6.1326    3.1736    8.4607 C   0  0  0  0  0  0  0  0  0  0  0  0
    2.9232    1.5099    3.9378 C   0  0  0  0  0  0  0  0  0  0  0  0
    7.0664    2.1728    9.1249 C   0  0  0  0  0  0  0  0  0  0  0  0
    2.0141    2.3930    3.0982 C   0  0  0  0  0  0  0  0  0  0  0  0
    8.4023    2.0922    8.4008 C   0  0  0  0  0  0  0  0  0  0  0  0
    1.7247    1.7373    1.7357 C   0  0  0  0  0  0  0  0  0  0  0  0
    9.2703    0.9824    8.9452 C   0  0  0  0  0  0  0  0  0  0  0  0
    2.9940    1.6649    0.8924 C   0  0  0  0  0  0  0  0  0  0  0  0
    0.7771    2.4776    0.9885 O   0  0  0  0  0  0  0  0  0  0  0  0
  1  2  1  0  0  0  0 
  1  3  1  0  0  0  0 
  2  4  1  0  0  0  0 
  3  5  1  0  0  0  0 
  4  6  1  0  0  0  0 
  5  7  1  0  0  0  0 
  6  8  1  0  0  0  0 
  7  9  1  0  0  0  0 
  8 10  1  0  0  0  0 
  9 11  1  0  0  0  0 
 10 12  1  0  0  0  0 
 10 13  1  0  0  0  0 
M  END
> <Name>
dodecan-2-ol

> <Source>
NIST3DMolFile

> <Tox>
4.660

> <CAS>
10203-28-8

$$$$

  CDK

 13 12  0  0  0  0  0  0  0  0999 V2000
   -3.8796    1.2041   -1.1015 O   0  0  0  0  0  0  0  0  0  0  0  0
   -2.7186    0.6635   -0.4666 C   0  0  0  0  0  0  0  0  0  0  0  0
   -2.0124    1.7900    0.3000 C   0  0  0  0  0  0  0  0  0  0  0  0
   -3.1504   -0.5404    0.3815 C   0  0  0  0  0  0  0  0  0  0  0  0
   -0.6864    1.4116    0.9655 C   0  0  0  0  0  0  0  0  0  0  0  0
   -3.9189   -1.6137   -0.3962 C   0  0  0  0  0  0  0  0  0  0  0  0
    0.3883    0.9793   -0.0351 C   0  0  0  0  0  0  0  0  0  0  0  0
   -4.3192   -2.7702    0.5078 C   0  0  0  0  0  0  0  0  0  0  0  0
    1.7140    0.5942    0.6310 C   0  0  0  0  0  0  0  0  0  0  0  0
    2.7804    0.1381   -0.3686 C   0  0  0  0  0  0  0  0  0  0  0  0
    4.1248   -0.1902    0.2889 C   0  0  0  0  0  0  0  0  0  0  0  0
    5.1839   -0.6707   -0.7039 C   0  0  0  0  0  0  0  0  0  0  0  0
    6.4941   -0.9957   -0.0028 C   0  0  0  0  0  0  0  0  0  0  0  0
  1  2  1  0  0  0  0 
  3  2  1  0  0  0  0 
  2  4  1  0  0  0  0 
  5  3  1  0  0  0  0 
  4  6  1  0  0  0  0 
  5  7  1  0  0  0  0 
  6  8  1  0  0  0  0 
  7  9  1  0  0  0  0 
  9 10  1  0  0  0  0 
 10 11  1  0  0  0  0 
 11 12  1  0  0  0  0 
 12 13  1  0  0  0  0 
M  END
> <Name>
dodecan-4-ol

> <Source>
Chemidplus3DMolFile

> <Tox>
4.650

> <CAS>
10203-32-4

$$$$

  CDK

  6  5  0  0  0  0  0  0  0  0999 V2000
    2.8344    4.2404    1.4879 C   0  0  0  0  0  0  0  0  0  0  0  0
    3.5647    3.0430    1.8063 C   0  0  0  0  0  0  0  0  0  0  0  0
    1.4642    3.8968    0.8937 C   0  0  0  0  0  0  0  0  0  0  0  0
    4.1787    2.0565    2.0757 C   0  0  0  0  0  0  0  0  0  0  0  0
    0.8441    5.1144    0.5466 O   0  0  0  0  0  0  0  0  0  0  0  0
    4.9162    0.8733    2.4008 C   0  0  0  0  0  0  0  0  0  0  0  0
  1  2  1  0  0  0  0 
  1  3  1  0  0  0  0 
  2  4  3  0  0  0  0 
  3  5  1  0  0  0  0 
  4  6  1  0  0  0  0 
M  END
> <Name>
3-Pentyn-1-ol

> <Source>
NIST3DMolFile

> <Tox>
1.825

> <CAS>
10229-10-4

$$$$

  CDK

 10  9  0  0  0  0  0  0  0  0999 V2000
    5.2952    3.3830    2.0563 O   0  0  0  0  0  0  0  0  0  0  0  0
    3.9989    3.0581    1.7808 C   0  0  0  0  0  0  0  0  0  0  0  0
    6.3633    2.5230    1.6168 C   0  0  0  0  0  0  0  0  0  0  0  0
    3.0526    4.0387    2.3571 C   0  0  0  0  0  0  0  0  0  0  0  0
    3.7387    2.0647    1.1257 O   0  0  0  0  0  0  0  0  0  0  0  0
    6.9876    1.8846    2.8673 C   0  0  0  0  0  0  0  0  0  0  0  0
    7.3525    3.4156    0.8747 C   0  0  0  0  0  0  0  0  0  0  0  0
    1.7336    3.9279    2.1685 C   0  0  0  0  0  0  0  0  0  0  0  0
    7.9559    0.7806    2.5070 C   0  0  0  0  0  0  0  0  0  0  0  0
    0.7643    4.8959    2.7235 C   0  0  0  0  0  0  0  0  0  0  0  0
  1  2  1  0  0  0  0 
  1  3  1  0  0  0  0 
  2  4  1  0  0  0  0 
  2  5  2  0  0  0  0 
  3  6  1  0  0  0  0 
  3  7  1  0  0  0  0 
  4  8  2  0  0  0  0 
  6  9  1  0  0  0  0 
  8 10  1  0  0  0  0 
M  END
> <Name>
Crotonic acid, sec-butyl ester, (E)- (8CI)

> <Source>
NIST3DMolFile

> <Tox>
2.580

> <CAS>
10371-45-6

$$$$

  CDK

  8  7  0  0  0  0  0  0  0  0999 V2000
    0.2078   -0.2803   -0.0008 O   0  0  0  0  0  0  0  0  0  0  0  0
    1.2869    0.6602    0.0004 C   0  0  0  0  0  0  0  0  0  0  0  0
   -1.0399    0.2614   -0.0008 C   0  0  0  0  0  0  0  0  0  0  0  0
    2.5738   -0.0362    0.0003 C   0  0  0  0  0  0  0  0  0  0  0  0
   -1.3255    1.4485    0.0001 O   0  0  0  0  0  0  0  0  0  0  0  0
   -2.0112   -0.8519    0.0000 C   0  0  0  0  0  0  0  0  0  0  0  0
    3.6305   -0.6058    0.0001 C   0  0  0  0  0  0  0  0  0  0  0  0
   -3.3225   -0.5958    0.0006 C   0  0  0  0  0  0  0  0  0  0  0  0
  1  2  1  0  0  0  0 
  1  3  1  0  0  0  0 
  2  4  1  0  0  0  0 
  5  3  2  0  0  0  0 
  3  6  1  0  0  0  0 
  4  7  3  0  0  0  0 
  6  8  2  0  0  0  0 
M  END
> <Name>
prop-2-ynyl prop-2-enoate

> <Source>
Chemidplus3DMolFile

> <Tox>
4.060

> <CAS>
10477-47-1

$$$$

  CDK

 12 11  0  0  0  0  0  0  0  0999 V2000
   -2.2644    0.5676    0.1483 O   0  0  0  0  0  0  0  0  0  0  0  0
   -3.5756    1.0986   -0.0696 C   0  0  0  0  0  0  0  0  0  0  0  0
   -2.1045   -0.7425   -0.1779 C   0  0  0  0  0  0  0  0  0  0  0  0
   -3.5916    2.5562    0.3387 C   0  0  0  0  0  0  0  0  0  0  0  0
   -2.9488   -1.5015   -0.6300 O   0  0  0  0  0  0  0  0  0  0  0  0
   -0.7607   -1.1949    0.0690 C   0  0  0  0  0  0  0  0  0  0  0  0
    0.3618   -1.5697    0.2733 C   0  0  0  0  0  0  0  0  0  0  0  0
    1.7354   -2.0267    0.5246 C   0  0  0  0  0  0  0  0  0  0  0  0
    2.7737   -1.1684   -0.2002 C   0  0  0  0  0  0  0  0  0  0  0  0
    2.7760    0.2895    0.2723 C   0  0  0  0  0  0  0  0  0  0  0  0
    3.8057    1.1187   -0.4960 C   0  0  0  0  0  0  0  0  0  0  0  0
    3.7931    2.5730   -0.0524 C   0  0  0  0  0  0  0  0  0  0  0  0
  1  2  1  0  0  0  0 
  1  3  1  0  0  0  0 
  2  4  1  0  0  0  0 
  5  3  2  0  0  0  0 
  6  3  1  0  0  0  0 
  7  6  3  0  0  0  0 
  8  7  1  0  0  0  0 
  9  8  1  0  0  0  0 
 10  9  1  0  0  0  0 
 10 11  1  0  0  0  0 
 11 12  1  0  0  0  0 
M  END
> <Name>
ethyl oct-2-ynoate

> <Source>
Chemidplus3DMolFile

> <Tox>
4.240

> <CAS>
10519-20-7

$$$$

  CDK

 12 12  0  0  0  0  0  0  0  0999 V2000
    3.8299    2.4262    1.7568 C   0  0  0  0  0  0  0  0  0  0  0  0
    3.8188    2.2511    3.2699 C   0  0  0  0  0  0  0  0  0  0  0  0
    4.5979    1.3252    1.0380 C   0  0  0  0  0  0  0  0  0  0  0  0
    3.1000    3.3811    3.9320 C   0  0  0  0  0  0  0  0  0  0  0  0
    6.1019    1.5545    0.9772 C   0  0  0  0  0  0  0  0  0  0  0  0
    1.7357    3.2842    4.2098 C   0  0  0  0  0  0  0  0  0  0  0  0
    3.7892    4.5461    4.2729 C   0  0  0  0  0  0  0  0  0  0  0  0
    6.8102    1.0841    2.2462 C   0  0  0  0  0  0  0  0  0  0  0  0
    1.0699    4.3387    4.8240 C   0  0  0  0  0  0  0  0  0  0  0  0
    3.1203    5.5993    4.8856 C   0  0  0  0  0  0  0  0  0  0  0  0
    8.1844    1.3564    2.0922 O   0  0  0  0  0  0  0  0  0  0  0  0
    1.7610    5.4971    5.1623 C   0  0  0  0  0  0  0  0  0  0  0  0
  1  2  1  0  0  0  0 
  1  3  1  0  0  0  0 
  2  4  1  0  0  0  0 
  3  5  1  0  0  0  0 
  4  6  2  0  0  0  0 
  7  4  1  0  0  0  0 
  5  8  1  0  0  0  0 
  6  9  1  0  0  0  0 
 10  7  2  0  0  0  0 
  8 11  1  0  0  0  0 
  9 12  2  0  0  0  0 
 12 10  1  0  0  0  0 
M  END
> <Name>
1-Pentanol, 5-phenyl- (8CI)

> <Source>
NIST3DMolFile

> <Tox>
3.420

> <CAS>
10521-91-2

$$$$

  CDK

  9  9  0  0  0  0  0  0  0  0999 V2000
   -0.2956    0.2898    0.0000 C   0  0  0  0  0  0  0  0  0  0  0  0
   -1.0101   -0.1227    0.0000 C   0  0  0  0  0  0  0  0  0  0  0  0
    0.4189   -0.1227    0.0000 C   0  0  0  0  0  0  0  0  0  0  0  0
   -0.2956    1.1148    0.0000 O   0  0  0  0  0  0  0  0  0  0  0  0
   -1.7246    0.2898    0.0000 Br  0  0  0  0  0  0  0  0  0  0  0  0
    1.1725    0.2128    0.0000 C   0  0  0  0  0  0  0  0  0  0  0  0
    0.5051   -0.9432    0.0000 S   0  0  0  0  0  0  0  0  0  0  0  0
    1.7246   -0.4003    0.0000 C   0  0  0  0  0  0  0  0  0  0  0  0
    1.3121   -1.1148    0.0000 C   0  0  0  0  0  0  0  0  0  0  0  0
  1  2  1  0  0  0  0 
  1  3  1  0  0  0  0 
  1  4  2  0  0  0  0 
  2  5  1  0  0  0  0 
  3  6  2  0  0  0  0 
  3  7  1  0  0  0  0 
  6  8  1  0  0  0  0 
  9  7  1  0  0  0  0 
  8  9  2  0  0  0  0 
M  END
> <Name>
Ketone,bromomethyl 2-thienyl (7CI,8CI)

> <Source>
Name2DMolFile

> <Tox>
5.222

> <CAS>
10531-41-6

$$$$

  CDK

  9  9  0  0  0  0  0  0  0  0999 V2000
    3.6918    0.6476   -0.0002 Br  0  0  0  0  0  0  0  0  0  0  0  0
    1.8770    0.0873    0.0000 C   0  0  0  0  0  0  0  0  0  0  0  0
    0.5528    1.1731    0.0000 S   0  0  0  0  0  0  0  0  0  0  0  0
    1.4672   -1.2279    0.0002 C   0  0  0  0  0  0  0  0  0  0  0  0
   -0.5740   -0.1162    0.0001 C   0  0  0  0  0  0  0  0  0  0  0  0
    0.0472   -1.3457    0.0001 C   0  0  0  0  0  0  0  0  0  0  0  0
   -1.9459    0.1742   -0.0001 N   0  0  0  0  0  0  0  0  0  0  0  0
   -2.7854   -0.7701   -0.0003 O   0  0  0  0  0  0  0  0  0  0  0  0
   -2.3308    1.3776    0.0002 O   0  0  0  0  0  0  0  0  0  0  0  0
  1  2  1  0  0  0  0 
  3  2  1  0  0  0  0 
  4  2  2  0  0  0  0 
  3  5  1  0  0  0  0 
  6  4  1  0  0  0  0 
  7  5  1  0  0  0  0 
  5  6  2  0  0  0  0 
  8  7  1  0  0  0  0 
  9  7  2  0  0  0  0 
M  CHG  1   7   1
M  CHG  1   8  -1
M  END
> <Name>
2-bromanyl-5-nitro-thiophene

> <Source>
Chemidplus3DMolFile

> <Tox>
4.410

> <CAS>
13195-50-1

$$$$

  CDK

 11 11  0  0  0  0  0  0  0  0999 V2000
    3.4613    1.4547    0.0000 C   0  0  0  0  0  0  0  0  0  0  0  0
    2.6085    2.0066    0.0000 C   0  0  0  0  0  0  0  0  0  0  0  0
    4.3642    1.9564    0.0000 C   0  0  0  0  0  0  0  0  0  0  0  0
    1.7056    1.5049    0.0000 C   0  0  0  0  0  0  0  0  0  0  0  0
    5.2170    1.4547    0.0000 C   0  0  0  0  0  0  0  0  0  0  0  0
    0.8528    2.0066    0.0000 C   0  0  0  0  0  0  0  0  0  0  0  0
    1.7056    0.5016    0.0000 C   0  0  0  0  0  0  0  0  0  0  0  0
    6.0698    1.9062    0.0000 N   0  0  0  0  0  0  0  0  0  0  0  0
    0.0000    1.5049    0.0000 C   0  0  0  0  0  0  0  0  0  0  0  0
    0.8528    0.0000    0.0000 C   0  0  0  0  0  0  0  0  0  0  0  0
    0.0000    0.5016    0.0000 C   0  0  0  0  0  0  0  0  0  0  0  0
  1  2  1  0  0  0  0 
  1  3  1  0  0  0  0 
  2  4  1  0  0  0  0 
  3  5  1  0  0  0  0 
  6  4  2  0  0  0  0 
  4  7  1  0  0  0  0 
  5  8  1  0  0  0  0 
  9  6  1  0  0  0  0 
  7 10  2  0  0  0  0 
 11  9  2  0  0  0  0 
 10 11  1  0  0  0  0 
M  END
> <Name>
4-Phenylbutylamine

> <Source>
NIST2DMolFile

> <Tox>
3.620

> <CAS>
13214-66-9

$$$$

  CDK

 12 11  0  0  0  0  0  0  0  0999 V2000
    2.1434   -0.6188    0.0000 N   0  0  0  0  0  0  0  0  0  0  0  0
    2.8579   -0.2062    0.0000 C   0  0  0  0  0  0  0  0  0  0  0  0
    1.4289   -0.2062    0.0000 C   0  0  0  0  0  0  0  0  0  0  0  0
    2.8579    0.6188    0.0000 S   0  0  0  0  0  0  0  0  0  0  0  0
    3.5724   -0.6188    0.0000 N   0  0  0  0  0  0  0  0  0  0  0  0
    0.7145   -0.6188    0.0000 C   0  0  0  0  0  0  0  0  0  0  0  0
    0.0000   -0.2062    0.0000 C   0  0  0  0  0  0  0  0  0  0  0  0
   -0.7145   -0.6188    0.0000 C   0  0  0  0  0  0  0  0  0  0  0  0
   -1.4289   -0.2062    0.0000 C   0  0  0  0  0  0  0  0  0  0  0  0
   -2.1434   -0.6188    0.0000 C   0  0  0  0  0  0  0  0  0  0  0  0
   -2.8579   -0.2062    0.0000 C   0  0  0  0  0  0  0  0  0  0  0  0
   -3.5724   -0.6188    0.0000 C   0  0  0  0  0  0  0  0  0  0  0  0
  1  2  1  0  0  0  0 
  1  3  1  0  0  0  0 
  2  4  2  0  0  0  0 
  2  5  1  0  0  0  0 
  3  6  1  0  0  0  0 
  6  7  1  0  0  0  0 
  7  8  1  0  0  0  0 
  8  9  1  0  0  0  0 
  9 10  1  0  0  0  0 
 10 11  1  0  0  0  0 
 11 12  1  0  0  0  0 
M  END
> <Name>
Urea, 1-octyl-2-thio- (7CI,8CI)

> <Source>
Name2DMolFile

> <Tox>
4.510

> <CAS>
13281-03-3

$$$$

  CDK

  6  5  0  0  0  0  0  0  0  0999 V2000
    0.0000    0.0000    0.0000 N   0  0  0  0  0  0  0  0  0  0  0  0
    0.8618    0.5070    0.0000 C   0  0  0  0  0  0  0  0  0  0  0  0
    1.7236    0.0000    0.0000 C   0  0  0  0  0  0  0  0  0  0  0  0
    2.6362    0.5070    0.0000 C   0  0  0  0  0  0  0  0  0  0  0  0
    3.4473    0.0000    0.0000 C   0  0  0  0  0  0  0  0  0  0  0  0
    4.3091    0.5070    0.0000 O   0  0  0  0  0  0  0  0  0  0  0  0
  1  2  1  0  0  0  0 
  2  3  1  0  0  0  0 
  3  4  1  0  0  0  0 
  4  5  1  0  0  0  0 
  5  6  1  0  0  0  0 
M  END
> <Name>
1-Butanol, 4-amino-

> <Source>
NIST2DMolFile

> <Tox>
2.025

> <CAS>
13325-10-5

$$$$

  CDK

  9  8  0  0  0  0  0  0  0  0999 V2000
   -0.9484   -0.6892    0.1992 O   0  0  0  0  0  0  0  0  0  0  0  0
   -2.0972    0.1526    0.1823 C   0  0  0  0  0  0  0  0  0  0  0  0
    0.2561   -0.0509    0.3370 C   0  0  0  0  0  0  0  0  0  0  0  0
   -1.9744    1.1443   -0.9644 C   0  0  0  0  0  0  0  0  0  0  0  0
   -3.3460   -0.7069    0.0569 C   0  0  0  0  0  0  0  0  0  0  0  0
    0.4382    1.0013    0.9343 O   0  0  0  0  0  0  0  0  0  0  0  0
    1.3227   -0.8547   -0.3652 C   0  0  0  0  0  0  0  0  0  0  0  0
    2.6492   -0.2398   -0.2387 C   0  0  0  0  0  0  0  0  0  0  0  0
    3.6998    0.2433   -0.1414 N   0  0  0  0  0  0  0  0  0  0  0  0
  1  2  1  0  0  0  0 
  1  3  1  0  0  0  0 
  2  4  1  0  0  0  0 
  2  5  1  0  0  0  0 
  6  3  2  0  0  0  0 
  3  7  1  0  0  0  0 
  7  8  1  0  0  0  0 
  9  8  3  0  0  0  0 
M  END
> <Name>
propan-2-yl 2-cyanoacetate

> <Source>
Chemidplus3DMolFile

> <Tox>
2.050

> <CAS>
13361-30-3

$$$$

  CDK

  9  8  0  0  0  0  0  0  0  0999 V2000
   -0.5824    0.8808    0.1802 C   0  0  0  0  0  0  0  0  0  0  0  0
   -1.7625    0.2157    0.8744 C   0  0  0  0  0  0  0  0  0  0  0  0
   -0.5908    1.9404   -0.4107 O   0  0  0  0  0  0  0  0  0  0  0  0
    0.5674    0.1639    0.2997 O   0  0  0  0  0  0  0  0  0  0  0  0
   -2.3736   -0.7704    0.0117 C   0  0  0  0  0  0  0  0  0  0  0  0
    1.7494    0.6733   -0.3237 C   0  0  0  0  0  0  0  0  0  0  0  0
   -2.8654   -1.5669   -0.6711 N   0  0  0  0  0  0  0  0  0  0  0  0
    2.8631   -0.3024   -0.1392 C   0  0  0  0  0  0  0  0  0  0  0  0
    2.7364   -1.5891    0.1603 C   0  0  0  0  0  0  0  0  0  0  0  0
  1  2  1  0  0  0  0 
  1  3  2  0  0  0  0 
  1  4  1  0  0  0  0 
  2  5  1  0  0  0  0 
  4  6  1  0  0  0  0 
  5  7  3  0  0  0  0 
  6  8  1  0  0  0  0 
  8  9  2  0  0  0  0 
M  END
> <Name>
Acetic acid, cyano-, 2-propenyl ester

> <Source>
DougDB3DMolFile

> <Tox>
2.210

> <CAS>
13361-32-5

$$$$

  CDK

 14 13  0  0  0  0  0  0  0  0999 V2000
   -1.2563    0.0880   -0.4187 O   0  0  0  0  0  0  0  0  0  0  0  0
   -0.1165   -0.3924    0.2810 C   0  0  0  0  0  0  0  0  0  0  0  0
   -2.4729   -0.3161    0.0683 C   0  0  0  0  0  0  0  0  0  0  0  0
    1.1712    0.1371   -0.3712 C   0  0  0  0  0  0  0  0  0  0  0  0
   -2.6417   -1.0429    1.0381 O   0  0  0  0  0  0  0  0  0  0  0  0
   -3.5693    0.2784   -0.7811 C   0  0  0  0  0  0  0  0  0  0  0  0
    2.3835   -0.5354    0.3069 C   0  0  0  0  0  0  0  0  0  0  0  0
    1.2308    1.6810   -0.3951 C   0  0  0  0  0  0  0  0  0  0  0  0
   -4.9041   -0.0963   -0.2999 C   0  0  0  0  0  0  0  0  0  0  0  0
    3.7190   -0.2241   -0.3766 C   0  0  0  0  0  0  0  0  0  0  0  0
    1.2658    2.3484    0.9729 C   0  0  0  0  0  0  0  0  0  0  0  0
   -5.9614   -0.3906    0.0770 N   0  0  0  0  0  0  0  0  0  0  0  0
    4.9129   -0.9096    0.2937 C   0  0  0  0  0  0  0  0  0  0  0  0
    6.2388   -0.6255   -0.3954 C   0  0  0  0  0  0  0  0  0  0  0  0
  1  2  1  0  0  0  0 
  1  3  1  0  0  0  0 
  4  2  1  0  0  0  0 
  5  3  2  0  0  0  0 
  3  6  1  0  0  0  0 
  4  7  1  0  0  0  0 
  4  8  1  0  0  0  0 
  6  9  1  0  0  0  0 
  7 10  1  0  0  0  0 
  8 11  1  0  0  0  0 
 12  9  3  0  0  0  0 
 10 13  1  0  0  0  0 
 13 14  1  0  0  0  0 
M  END
> <Name>
2-ethylhexyl 2-cyanoacetate

> <Source>
Chemidplus3DMolFile

> <Tox>
3.890

> <CAS>
13361-34-7

$$$$

  CDK

  7  6  0  0  0  0  0  0  0  0999 V2000
    0.0000    0.1013    0.0000 Cl  0  0  0  0  0  0  0  0  0  0  0  0
    0.5066    0.9625    0.0000 C   0  0  0  0  0  0  0  0  0  0  0  0
    1.5197    0.9625    0.0000 C   0  0  0  0  0  0  0  0  0  0  0  0
    1.5197    0.0000    0.0000 C   0  0  0  0  0  0  0  0  0  0  0  0
    1.5197    1.9756    0.0000 C   0  0  0  0  0  0  0  0  0  0  0  0
    2.5328    0.9625    0.0000 C   0  0  0  0  0  0  0  0  0  0  0  0
    3.0394    0.1013    0.0000 O   0  0  0  0  0  0  0  0  0  0  0  0
  1  2  1  0  0  0  0 
  2  3  1  0  0  0  0 
  3  4  1  0  0  0  0 
  3  5  1  0  0  0  0 
  3  6  1  0  0  0  0 
  6  7  1  0  0  0  0 
M  END
> <Name>
1-Propanol, 3-chloro-2,2-dimethyl-

> <Source>
NIST2DMolFile

> <Tox>
2.218

> <CAS>
13401-56-4

$$$$

  CDK

  8  7  0  0  0  0  0  0  0  0999 V2000
    0.0000   -1.1538    0.0000 C   0  0  0  0  0  0  0  0  0  0  0  0
    0.6588   -2.3075    0.0000 C   0  0  0  0  0  0  0  0  0  0  0  0
    0.6588   -0.0000    0.0000 Cl  0  0  0  0  0  0  0  0  0  0  0  0
    1.9872   -2.3075    0.0000 C   0  0  0  0  0  0  0  0  0  0  0  0
    0.0000   -3.4649    0.0000 O   0  0  0  0  0  0  0  0  0  0  0  0
    3.3193   -2.3075    0.0000 C   0  0  0  0  0  0  0  0  0  0  0  0
    1.9872   -3.6396    0.0000 C   0  0  0  0  0  0  0  0  0  0  0  0
    1.9872   -0.9791    0.0000 C   0  0  0  0  0  0  0  0  0  0  0  0
  1  2  1  0  0  0  0 
  1  3  1  0  0  0  0 
  2  4  1  0  0  0  0 
  2  5  2  0  0  0  0 
  4  6  1  0  0  0  0 
  4  7  1  0  0  0  0 
  4  8  1  0  0  0  0 
M  END
> <Name>
2-Butanone, 1-chloro-3,3-dimethyl-

> <Source>
DSSTox2DMolFile

> <Tox>
4.268

> <CAS>
13547-70-1

$$$$

  CDK

 12 12  0  0  0  0  0  0  0  0999 V2000
    2.6572   -3.4532    0.0000 C   0  0  0  0  0  0  0  0  0  0  0  0
    1.9929   -2.3041    0.0000 C   0  0  0  0  0  0  0  0  0  0  0  0
    3.9918   -3.4532    0.0000 C   0  0  0  0  0  0  0  0  0  0  0  0
    0.6643   -2.3041    0.0000 C   0  0  0  0  0  0  0  0  0  0  0  0
    2.6572   -1.1491    0.0000 C   0  0  0  0  0  0  0  0  0  0  0  0
    4.6561   -2.3041    0.0000 C   0  0  0  0  0  0  0  0  0  0  0  0
    0.0000   -1.1491    0.0000 O   0  0  0  0  0  0  0  0  0  0  0  0
    0.0000   -3.4532    0.0000 C   0  0  0  0  0  0  0  0  0  0  0  0
    1.9929   -0.0000    0.0000 Cl  0  0  0  0  0  0  0  0  0  0  0  0
    3.9918   -1.1491    0.0000 C   0  0  0  0  0  0  0  0  0  0  0  0
    5.9847   -2.3041    0.0000 Cl  0  0  0  0  0  0  0  0  0  0  0  0
    4.6561   -0.0000    0.0000 Cl  0  0  0  0  0  0  0  0  0  0  0  0
  1  2  2  0  0  0  0 
  1  3  1  0  0  0  0 
  2  4  1  0  0  0  0 
  2  5  1  0  0  0  0 
  6  3  2  0  0  0  0 
  4  7  2  0  0  0  0 
  4  8  1  0  0  0  0 
  5  9  1  0  0  0  0 
  5 10  2  0  0  0  0 
 10  6  1  0  0  0  0 
  6 11  1  0  0  0  0 
 10 12  1  0  0  0  0 
M  END
> <Name>
2',3',4'-Trichloroacetophenone

> <Source>
DSSTox2DMolFile

> <Tox>
4.340

> <CAS>
13608-87-2

$$$$

  CDK

 11 11  0  0  0  0  0  0  0  0999 V2000
    1.8346   -0.9459    4.0429 O   0  0  0  0  0  0  0  0  0  0  0  0
    1.8509   -0.9767    2.6799 C   0  0  0  0  0  0  0  0  0  0  0  0
    0.8008   -0.4105    1.9570 C   0  0  0  0  0  0  0  0  0  0  0  0
    2.9180   -1.5734    2.0082 C   0  0  0  0  0  0  0  0  0  0  0  0
   -0.2469    0.1753    2.6016 O   0  0  0  0  0  0  0  0  0  0  0  0
    0.8176   -0.4410    0.5626 C   0  0  0  0  0  0  0  0  0  0  0  0
    3.9504   -2.1281    2.7027 O   0  0  0  0  0  0  0  0  0  0  0  0
    2.9348   -1.6038    0.6137 C   0  0  0  0  0  0  0  0  0  0  0  0
    1.8846   -1.0376   -0.1090 C   0  0  0  0  0  0  0  0  0  0  0  0
    1.9023   -1.0690   -1.5631 C   0  0  0  0  0  0  0  0  0  0  0  0
    2.8168   -1.5809   -2.2147 O   0  0  0  0  0  0  0  0  0  0  0  0
  1  2  1  0  0  0  0 
  2  3  2  0  0  0  0 
  2  4  1  0  0  0  0 
  5  3  1  0  0  0  0 
  3  6  1  0  0  0  0 
  7  4  1  0  0  0  0 
  4  8  2  0  0  0  0 
  9  6  2  0  0  0  0 
  9  8  1  0  0  0  0 
  9 10  1  0  0  0  0 
 11 10  2  0  0  0  0 
M  END
> <Name>
3,4,5-Trihydroxybenzaldehyde

> <Source>
Chemidplus3DMolFile

> <Tox>
2.804

> <CAS>
13677-79-7

$$$$

  CDK

  7  6  0  0  0  0  0  0  0  0999 V2000
    0.6762    1.0565    1.4705 C   0  0  0  0  0  0  0  0  0  0  0  0
    1.9629    1.7977    1.1770 C   0  0  0  0  0  0  0  0  0  0  0  0
    2.9053    1.7548    2.3221 C   0  0  0  0  0  0  0  0  0  0  0  0
    4.2105    2.0446    2.2813 C   0  0  0  0  0  0  0  0  0  0  0  0
    4.9483    2.4544    1.0755 C   0  0  0  0  0  0  0  0  0  0  0  0
    6.2975    2.3645    1.1871 O   0  0  0  0  0  0  0  0  0  0  0  0
    4.5467    2.8695    0.0000 O   0  0  0  0  0  0  0  0  0  0  0  0
  1  2  1  0  0  0  0 
  2  3  1  0  0  0  0 
  3  4  2  0  0  0  0 
  4  5  1  0  0  0  0 
  5  6  1  0  0  0  0 
  5  7  2  0  0  0  0 
M  END
> <Name>
(E)-Pent-2-en-1-oic acid

> <Source>
NIST3DMolFile

> <Tox>
2.723

> <CAS>
13991-37-2

$$$$

  CDK

 12 11  0  0  0  0  0  0  0  0999 V2000
    3.3238   -0.0000    0.0000 C   0  0  0  0  0  0  0  0  0  0  0  0
    1.9931   -0.0000    0.0000 C   0  0  0  0  0  0  0  0  0  0  0  0
    1.3307   -1.1521    0.0000 O   0  0  0  0  0  0  0  0  0  0  0  0
    1.9931   -2.3042    0.0000 C   0  0  0  0  0  0  0  0  0  0  0  0
    3.3238   -2.3042    0.0000 O   0  0  0  0  0  0  0  0  0  0  0  0
    1.3307   -3.4563    0.0000 C   0  0  0  0  0  0  0  0  0  0  0  0
    0.0000   -3.4563    0.0000 Cl  0  0  0  0  0  0  0  0  0  0  0  0
    1.9931   -4.6084    0.0000 C   0  0  0  0  0  0  0  0  0  0  0  0
    1.3307   -5.7604    0.0000 O   0  0  0  0  0  0  0  0  0  0  0  0
    3.3238   -4.6084    0.0000 O   0  0  0  0  0  0  0  0  0  0  0  0
    3.9920   -5.7604    0.0000 C   0  0  0  0  0  0  0  0  0  0  0  0
    5.3227   -5.7604    0.0000 C   0  0  0  0  0  0  0  0  0  0  0  0
  1  2  1  0  0  0  0 
  2  3  1  0  0  0  0 
  3  4  1  0  0  0  0 
  4  5  2  0  0  0  0 
  4  6  1  0  0  0  0 
  6  7  1  0  0  0  0 
  6  8  1  0  0  0  0 
  8  9  2  0  0  0  0 
  8 10  1  0  0  0  0 
 10 11  1  0  0  0  0 
 11 12  1  0  0  0  0 
M  END
> <Name>
Propanedioic acid, chloro-, diethyl ester

> <Source>
DSSTox2DMolFile

> <Tox>
3.635

> <CAS>
14064-10-9

$$$$

  CDK

 10 10  0  0  0  0  0  0  0  0999 V2000
    1.7953   -0.9201    4.4041 Cl  0  0  0  0  0  0  0  0  0  0  0  0
    1.8509   -0.9767    2.6799 C   0  0  0  0  0  0  0  0  0  0  0  0
    2.9180   -1.5734    2.0082 C   0  0  0  0  0  0  0  0  0  0  0  0
    0.8008   -0.4105    1.9570 C   0  0  0  0  0  0  0  0  0  0  0  0
    4.0614   -2.1918    2.7457 C   0  0  0  0  0  0  0  0  0  0  0  0
    2.9348   -1.6038    0.6137 C   0  0  0  0  0  0  0  0  0  0  0  0
    0.8176   -0.4410    0.5626 C   0  0  0  0  0  0  0  0  0  0  0  0
    3.8222   -3.6673    3.0494 C   0  0  0  0  0  0  0  0  0  0  0  0
    1.8846   -1.0376   -0.1090 C   0  0  0  0  0  0  0  0  0  0  0  0
    1.9006   -1.0675   -1.4697 O   0  0  0  0  0  0  0  0  0  0  0  0
  1  2  1  0  0  0  0 
  3  2  2  0  0  0  0 
  2  4  1  0  0  0  0 
  3  5  1  0  0  0  0 
  3  6  1  0  0  0  0 
  4  7  2  0  0  0  0 
  5  8  1  0  0  0  0 
  6  9  2  0  0  0  0 
  9  7  1  0  0  0  0 
 10  9  1  0  0  0  0 
M  END
> <Name>
4-Chloro-3-ethylphenol

> <Source>
Chemidplus3DMolFile

> <Tox>
4.080

> <CAS>
14143-32-9

$$$$

  CDK

 10 10  0  0  0  0  0  0  0  0999 V2000
    4.3398    1.5644    0.0000 C   0  0  0  0  0  0  0  0  0  0  0  0
    3.4819    2.0185    0.0000 C   0  0  0  0  0  0  0  0  0  0  0  0
    5.1977    1.0597    0.0000 N   0  0  0  0  0  0  0  0  0  0  0  0
    2.6241    1.5139    0.0000 C   0  0  0  0  0  0  0  0  0  0  0  0
    1.7662    2.0185    0.0000 C   0  0  0  0  0  0  0  0  0  0  0  0
    2.6241    0.5046    0.0000 C   0  0  0  0  0  0  0  0  0  0  0  0
    0.9083    1.5139    0.0000 C   0  0  0  0  0  0  0  0  0  0  0  0
    1.7662    0.0000    0.0000 C   0  0  0  0  0  0  0  0  0  0  0  0
    0.9083    0.5046    0.0000 C   0  0  0  0  0  0  0  0  0  0  0  0
    0.0000    0.0000    0.0000 O   0  0  0  0  0  0  0  0  0  0  0  0
  1  2  1  0  0  0  0 
  1  3  3  0  0  0  0 
  2  4  1  0  0  0  0 
  5  4  2  0  0  0  0 
  4  6  1  0  0  0  0 
  7  5  1  0  0  0  0 
  6  8  2  0  0  0  0 
  9  7  2  0  0  0  0 
  8  9  1  0  0  0  0 
  9 10  1  0  0  0  0 
M  END
> <Name>
Benzeneacetonitrile, 4-hydroxy- (9CI)

> <Source>
NIST2DMolFile

> <Tox>
2.620

> <CAS>
14191-95-8

$$$$

  CDK

 10  9  0  0  0  0  0  0  0  0999 V2000
    4.2155   -0.8133   -0.6305 O   0  0  0  0  0  0  0  0  0  0  0  0
    3.3426   -0.0530   -0.2110 C   0  0  0  0  0  0  0  0  0  0  0  0
    1.9839   -0.5951    0.0636 C   0  0  0  0  0  0  0  0  0  0  0  0
    3.6290    1.4072    0.0249 C   0  0  0  0  0  0  0  0  0  0  0  0
    0.9647    0.1463    0.5168 C   0  0  0  0  0  0  0  0  0  0  0  0
   -0.4023   -0.4147    0.7917 C   0  0  0  0  0  0  0  0  0  0  0  0
   -1.5107    0.3044    0.0163 C   0  0  0  0  0  0  0  0  0  0  0  0
   -2.9021   -0.2810    0.2765 C   0  0  0  0  0  0  0  0  0  0  0  0
   -3.9704    0.4474   -0.5396 C   0  0  0  0  0  0  0  0  0  0  0  0
   -5.3502   -0.1481   -0.3086 C   0  0  0  0  0  0  0  0  0  0  0  0
  1  2  2  0  0  0  0 
  3  2  1  0  0  0  0 
  2  4  1  0  0  0  0 
  5  3  2  0  0  0  0 
  6  5  1  0  0  0  0 
  7  6  1  0  0  0  0 
  8  7  1  0  0  0  0 
  8  9  1  0  0  0  0 
  9 10  1  0  0  0  0 
M  END
> <Name>
(E)-non-3-en-2-one

> <Source>
Chemidplus3DMolFile

> <Tox>
3.980

> <CAS>
14309-57-0

$$$$

  CDK

 10 10  0  0  0  0  0  0  0  0999 V2000
    0.0000   -1.9973    0.0000 C   0  0  0  0  0  0  0  0  0  0  0  0
    1.1542   -2.6608    0.0000 C   0  0  0  0  0  0  0  0  0  0  0  0
    2.3014   -1.9973    0.0000 N   0  0  0  0  0  0  0  0  0  0  0  0
    3.4556   -2.6608    0.0000 C   0  0  0  0  0  0  0  0  0  0  0  0
    4.6098   -1.9973    0.0000 C   0  0  0  0  0  0  0  0  0  0  0  0
    4.6098   -0.6635    0.0000 C   0  0  0  0  0  0  0  0  0  0  0  0
    5.7570   -2.6608    0.0000 C   0  0  0  0  0  0  0  0  0  0  0  0
    5.7570   -0.0000    0.0000 C   0  0  0  0  0  0  0  0  0  0  0  0
    6.9112   -1.9973    0.0000 C   0  0  0  0  0  0  0  0  0  0  0  0
    6.9112   -0.6635    0.0000 C   0  0  0  0  0  0  0  0  0  0  0  0
  1  2  1  0  0  0  0 
  2  3  1  0  0  0  0 
  3  4  1  0  0  0  0 
  4  5  1  0  0  0  0 
  5  6  2  0  0  0  0 
  5  7  1  0  0  0  0 
  6  8  1  0  0  0  0 
  9  7  2  0  0  0  0 
  8 10  2  0  0  0  0 
 10  9  1  0  0  0  0 
M  END
> <Name>
Benzenemethanamine, N-ethyl-

> <Source>
DSSTox2DMolFile

> <Tox>
3.220

> <CAS>
14321-27-8

$$$$

  CDK

 10 10  0  0  0  0  0  0  0  0999 V2000
    6.9112   -1.9973    0.0000 O   0  0  0  0  0  0  0  0  0  0  0  0
    5.7570   -2.6608    0.0000 C   0  0  0  0  0  0  0  0  0  0  0  0
    4.6098   -1.9973    0.0000 C   0  0  0  0  0  0  0  0  0  0  0  0
    3.4556   -2.6608    0.0000 C   0  0  0  0  0  0  0  0  0  0  0  0
    2.3014   -1.9973    0.0000 C   0  0  0  0  0  0  0  0  0  0  0  0
    2.3014   -0.6635    0.0000 C   0  0  0  0  0  0  0  0  0  0  0  0
    1.1542   -2.6608    0.0000 C   0  0  0  0  0  0  0  0  0  0  0  0
    1.1542   -0.0000    0.0000 C   0  0  0  0  0  0  0  0  0  0  0  0
    0.0000   -1.9973    0.0000 C   0  0  0  0  0  0  0  0  0  0  0  0
    0.0000   -0.6635    0.0000 C   0  0  0  0  0  0  0  0  0  0  0  0
  1  2  2  0  0  0  0 
  2  3  1  0  0  0  0 
  3  4  2  0  0  0  0 
  4  5  1  0  0  0  0 
  5  6  2  0  0  0  0 
  5  7  1  0  0  0  0 
  6  8  1  0  0  0  0 
  9  7  2  0  0  0  0 
  8 10  2  0  0  0  0 
 10  9  1  0  0  0  0 
M  END
> <Name>
2-Propenal, 3-phenyl-, (E)- (9CI)

> <Source>
DSSTox2DMolFile

> <Tox>
3.680

> <CAS>
14371-10-9

$$$$

  CDK

 15 16  0  0  0  0  0  0  0  0999 V2000
    5.7544   -1.3298    0.0000 C   0  0  0  0  0  0  0  0  0  0  0  0
    6.9069   -1.9987    0.0000 C   0  0  0  0  0  0  0  0  0  0  0  0
    4.6019   -1.9987    0.0000 C   0  0  0  0  0  0  0  0  0  0  0  0
    6.9069   -3.3285    0.0000 C   0  0  0  0  0  0  0  0  0  0  0  0
    4.6019   -3.3285    0.0000 C   0  0  0  0  0  0  0  0  0  0  0  0
    3.4575   -1.3298    0.0000 C   0  0  0  0  0  0  0  0  0  0  0  0
    8.0594   -3.9894    0.0000 Br  0  0  0  0  0  0  0  0  0  0  0  0
    5.7544   -3.9894    0.0000 C   0  0  0  0  0  0  0  0  0  0  0  0
    3.4575   -0.0000    0.0000 O   0  0  0  0  0  0  0  0  0  0  0  0
    2.3050   -1.9987    0.0000 C   0  0  0  0  0  0  0  0  0  0  0  0
    2.3050   -3.3285    0.0000 C   0  0  0  0  0  0  0  0  0  0  0  0
    1.1525   -1.3298    0.0000 C   0  0  0  0  0  0  0  0  0  0  0  0
    1.1525   -3.9894    0.0000 C   0  0  0  0  0  0  0  0  0  0  0  0
    0.0000   -1.9987    0.0000 N   0  0  0  0  0  0  0  0  0  0  0  0
    0.0000   -3.3285    0.0000 C   0  0  0  0  0  0  0  0  0  0  0  0
  1  2  2  0  0  0  0 
  1  3  1  0  0  0  0 
  2  4  1  0  0  0  0 
  5  3  2  0  0  0  0 
  3  6  1  0  0  0  0 
  4  7  1  0  0  0  0 
  4  8  2  0  0  0  0 
  8  5  1  0  0  0  0 
  6  9  2  0  0  0  0 
  6 10  1  0  0  0  0 
 10 11  2  0  0  0  0 
 10 12  1  0  0  0  0 
 11 13  1  0  0  0  0 
 14 12  2  0  0  0  0 
 13 15  2  0  0  0  0 
 15 14  1  0  0  0  0 
M  END
> <Name>
4-Bromophenyl 3-pyridyl ketone

> <Source>
DSSTox2DMolFile

> <Tox>
3.820

> <CAS>
14548-45-9

$$$$

  CDK

 14 15  0  0  0  0  0  0  0  0999 V2000
    5.7567   -1.3269    0.0000 C   0  0  0  0  0  0  0  0  0  0  0  0
    6.9108   -1.9903    0.0000 C   0  0  0  0  0  0  0  0  0  0  0  0
    4.6095   -1.9903    0.0000 C   0  0  0  0  0  0  0  0  0  0  0  0
    6.9108   -3.3241    0.0000 C   0  0  0  0  0  0  0  0  0  0  0  0
    4.6095   -3.3241    0.0000 C   0  0  0  0  0  0  0  0  0  0  0  0
    3.4554   -1.3269    0.0000 C   0  0  0  0  0  0  0  0  0  0  0  0
    5.7567   -3.9875    0.0000 C   0  0  0  0  0  0  0  0  0  0  0  0
    3.4554   -0.0000    0.0000 O   0  0  0  0  0  0  0  0  0  0  0  0
    2.3013   -1.9903    0.0000 C   0  0  0  0  0  0  0  0  0  0  0  0
    2.3013   -3.3241    0.0000 C   0  0  0  0  0  0  0  0  0  0  0  0
    1.1541   -1.3269    0.0000 C   0  0  0  0  0  0  0  0  0  0  0  0
    1.1541   -3.9875    0.0000 C   0  0  0  0  0  0  0  0  0  0  0  0
    0.0000   -1.9903    0.0000 C   0  0  0  0  0  0  0  0  0  0  0  0
    0.0000   -3.3241    0.0000 N   0  0  0  0  0  0  0  0  0  0  0  0
  1  2  2  0  0  0  0 
  1  3  1  0  0  0  0 
  2  4  1  0  0  0  0 
  5  3  2  0  0  0  0 
  3  6  1  0  0  0  0 
  4  7  2  0  0  0  0 
  7  5  1  0  0  0  0 
  6  8  2  0  0  0  0 
  6  9  1  0  0  0  0 
  9 10  2  0  0  0  0 
  9 11  1  0  0  0  0 
 10 12  1  0  0  0  0 
 13 11  2  0  0  0  0 
 12 14  2  0  0  0  0 
 14 13  1  0  0  0  0 
M  END
> <Name>
Methanone, phenyl-4-pyridinyl-

> <Source>
DSSTox2DMolFile

> <Tox>
2.910

> <CAS>
14548-46-0

$$$$

  CDK

  8  7  0  0  0  0  0  0  0  0999 V2000
   -0.0489    0.3540    0.0001 C   0  0  0  0  0  0  0  0  0  0  0  0
    1.1989   -0.4371    0.0001 C   0  0  0  0  0  0  0  0  0  0  0  0
   -0.1768    1.5632    0.0002 O   0  0  0  0  0  0  0  0  0  0  0  0
   -1.1597   -0.4567   -0.0001 O   0  0  0  0  0  0  0  0  0  0  0  0
    2.3980    0.1550    0.0004 C   0  0  0  0  0  0  0  0  0  0  0  0
   -2.4241    0.1100   -0.0006 C   0  0  0  0  0  0  0  0  0  0  0  0
    3.6642   -0.6070   -0.0002 C   0  0  0  0  0  0  0  0  0  0  0  0
   -3.4513   -0.7400    0.0004 C   0  0  0  0  0  0  0  0  0  0  0  0
  1  2  1  0  0  0  0 
  1  3  2  0  0  0  0 
  1  4  1  0  0  0  0 
  2  5  2  0  0  0  0 
  4  6  1  0  0  0  0 
  5  7  1  0  0  0  0 
  6  8  2  0  0  0  0 
M  END
> <Name>
2-Butenoic acid, ethenyl ester

> <Source>
DougDB3DMolFile

> <Tox>
2.850

> <CAS>
14861-06-4

$$$$

  CDK

 10 10  0  0  0  0  0  0  0  0999 V2000
    1.2797    3.6704    1.5394 C   0  0  0  0  0  0  0  0  0  0  0  0
    2.3573    2.9522    1.0321 C   0  0  0  0  0  0  0  0  0  0  0  0
    0.8502    3.4538    2.8433 C   0  0  0  0  0  0  0  0  0  0  0  0
    3.0114    2.0105    1.8266 C   0  0  0  0  0  0  0  0  0  0  0  0
    1.5018    2.5193    3.6423 C   0  0  0  0  0  0  0  0  0  0  0  0
    2.5782    1.7995    3.1376 C   0  0  0  0  0  0  0  0  0  0  0  0
    4.1664    1.2327    1.2852 C   0  0  0  0  0  0  0  0  0  0  0  0
    5.5120    1.8697    1.6860 C   0  0  0  0  0  0  0  0  0  0  0  0
    6.6707    0.9645    1.2804 C   0  0  0  0  0  0  0  0  0  0  0  0
    5.7258    3.1153    1.0484 O   0  0  0  0  0  0  0  0  0  0  0  0
  1  2  2  0  0  0  0 
  3  1  1  0  0  0  0 
  2  4  1  0  0  0  0 
  5  3  2  0  0  0  0 
  4  6  2  0  0  0  0 
  4  7  1  0  0  0  0 
  6  5  1  0  0  0  0 
  7  8  1  0  0  0  0 
  9  8  1  0  0  0  0 
  8 10  1  0  0  0  0 
M  END
> <Name>
1-phenylpropan-2-ol

> <Source>
NIST3DMolFile

> <Tox>
2.380

> <CAS>
14898-87-4

$$$$

  CDK

  8  7  0  0  0  0  0  0  0  0999 V2000
    5.2894    1.7397    1.8170 C   0  0  0  0  0  0  0  0  0  0  0  0
    4.1328    1.6536    1.5392 C   0  0  0  0  0  0  0  0  0  0  0  0
    6.6797    1.8340    2.1720 C   0  0  0  0  0  0  0  0  0  0  0  0
    2.7370    1.5496    1.2039 C   0  0  0  0  0  0  0  0  0  0  0  0
    7.5671    1.0923    1.1614 C   0  0  0  0  0  0  0  0  0  0  0  0
    1.9872    2.8461    1.4881 C   0  0  0  0  0  0  0  0  0  0  0  0
    8.9320    1.2388    1.4438 O   0  0  0  0  0  0  0  0  0  0  0  0
    0.5385    2.7392    1.0704 C   0  0  0  0  0  0  0  0  0  0  0  0
  1  2  3  0  0  0  0 
  1  3  1  0  0  0  0 
  2  4  1  0  0  0  0 
  3  5  1  0  0  0  0 
  4  6  1  0  0  0  0 
  5  7  1  0  0  0  0 
  6  8  1  0  0  0  0 
M  END
> <Name>
Hept-3-yn-1-ol

> <Source>
NIST3DMolFile

> <Tox>
2.677

> <CAS>
14916-79-1

$$$$

  CDK

  9  8  0  0  0  0  0  0  0  0999 V2000
    6.6715    3.8086    1.0996 C   0  0  0  0  0  0  0  0  0  0  0  0
    5.3317    4.2126    1.4353 C   0  0  0  0  0  0  0  0  0  0  0  0
    7.0528    2.5120    1.8064 C   0  0  0  0  0  0  0  0  0  0  0  0
    4.2221    4.5481    1.7155 C   0  0  0  0  0  0  0  0  0  0  0  0
    8.4973    2.1373    1.5160 C   0  0  0  0  0  0  0  0  0  0  0  0
    2.8868    4.9541    2.0629 C   0  0  0  0  0  0  0  0  0  0  0  0
    8.8752    0.8357    2.1858 C   0  0  0  0  0  0  0  0  0  0  0  0
    1.8852    4.4800    1.0045 C   0  0  0  0  0  0  0  0  0  0  0  0
    0.6112    4.9269    1.4095 O   0  0  0  0  0  0  0  0  0  0  0  0
  1  2  1  0  0  0  0 
  1  3  1  0  0  0  0 
  2  4  3  0  0  0  0 
  3  5  1  0  0  0  0 
  4  6  1  0  0  0  0 
  5  7  1  0  0  0  0 
  6  8  1  0  0  0  0 
  8  9  1  0  0  0  0 
M  END
> <Name>
3-Octyn-1-ol

> <Source>
NIST3DMolFile

> <Tox>
3.017

> <CAS>
14916-80-4

$$$$

  CDK

  7  7  0  0  0  0  0  0  0  0999 V2000
   -1.1025    0.9436    0.0001 O   0  0  0  0  0  0  0  0  0  0  0  0
    0.2342    0.6993   -0.0001 C   0  0  0  0  0  0  0  0  0  0  0  0
   -1.7189   -0.2675    0.0000 C   0  0  0  0  0  0  0  0  0  0  0  0
    0.4779   -0.6544   -0.0002 C   0  0  0  0  0  0  0  0  0  0  0  0
    1.1072    1.8826    0.0000 C   0  0  0  0  0  0  0  0  0  0  0  0
   -0.7905   -1.2823    0.0000 C   0  0  0  0  0  0  0  0  0  0  0  0
    1.7925   -1.3213    0.0001 C   0  0  0  0  0  0  0  0  0  0  0  0
  1  2  1  0  0  0  0 
  1  3  1  0  0  0  0 
  4  2  2  0  0  0  0 
  2  5  1  0  0  0  0 
  6  3  2  0  0  0  0 
  4  6  1  0  0  0  0 
  4  7  1  0  0  0  0 
M  END
> <Name>
2,3-dimethylfuran

> <Source>
Chemidplus3DMolFile

> <Tox>
2.490

> <CAS>
14920-89-9

$$$$

  CDK

 12 12  0  0  0  0  0  0  0  0999 V2000
    9.7872    0.0000    0.0000 C   0  0  0  0  0  0  0  0  0  0  0  0
    8.3711    0.0000    0.0000 C   0  0  0  0  0  0  0  0  0  0  0  0
    7.6631    1.2078    0.0000 C   0  0  0  0  0  0  0  0  0  0  0  0
    6.2888    1.2078    0.0000 C   0  0  0  0  0  0  0  0  0  0  0  0
    5.5808    2.4156    0.0000 C   0  0  0  0  0  0  0  0  0  0  0  0
    4.1647    2.4156    0.0000 C   0  0  0  0  0  0  0  0  0  0  0  0
    3.4567    1.2078    0.0000 C   0  0  0  0  0  0  0  0  0  0  0  0
    3.4567    3.6233    0.0000 C   0  0  0  0  0  0  0  0  0  0  0  0
    2.0824    1.2078    0.0000 C   0  0  0  0  0  0  0  0  0  0  0  0
    2.0824    3.6233    0.0000 C   0  0  0  0  0  0  0  0  0  0  0  0
    1.3744    2.4156    0.0000 C   0  0  0  0  0  0  0  0  0  0  0  0
    0.0000    2.4156    0.0000 O   0  0  0  0  0  0  0  0  0  0  0  0
  1  2  1  0  0  0  0 
  2  3  1  0  0  0  0 
  3  4  1  0  0  0  0 
  4  5  1  0  0  0  0 
  5  6  1  0  0  0  0 
  6  7  1  0  0  0  0 
  6  8  2  0  0  0  0 
  7  9  2  0  0  0  0 
 10  8  1  0  0  0  0 
  9 11  1  0  0  0  0 
 11 10  2  0  0  0  0 
 11 12  1  0  0  0  0 
M  END
> <Name>
4-pentylphenol

> <Source>
IndexNet2DMolFile

> <Tox>
4.580

> <CAS>
14938-35-3

$$$$

  CDK

 10 10  0  0  0  0  0  0  0  0999 V2000
    2.6582   -3.4542    0.0000 N   0  0  0  0  0  0  0  0  0  0  0  0
    1.9971   -2.3044    0.0000 C   0  0  0  0  0  0  0  0  0  0  0  0
    3.9896   -3.4542    0.0000 C   0  0  0  0  0  0  0  0  0  0  0  0
    0.6657   -2.3044    0.0000 N   0  0  0  0  0  0  0  0  0  0  0  0
    2.6582   -1.1499    0.0000 C   0  0  0  0  0  0  0  0  0  0  0  0
    4.6553   -2.3044    0.0000 C   0  0  0  0  0  0  0  0  0  0  0  0
    0.0000   -1.1499    0.0000 O   0  0  0  0  0  0  0  0  0  0  0  0
    0.0000   -3.4542    0.0000 O   0  0  0  0  0  0  0  0  0  0  0  0
    1.9971   -0.0000    0.0000 O   0  0  0  0  0  0  0  0  0  0  0  0
    3.9896   -1.1499    0.0000 C   0  0  0  0  0  0  0  0  0  0  0  0
  1  2  2  0  0  0  0 
  1  3  1  0  0  0  0 
  2  4  1  0  0  0  0 
  2  5  1  0  0  0  0 
  6  3  2  0  0  0  0 
  4  7  1  0  0  0  0 
  4  8  2  0  0  0  0 
  5  9  1  0  0  0  0 
  5 10  2  0  0  0  0 
 10  6  1  0  0  0  0 
M  CHG  1   4   1
M  CHG  1   7  -1
M  END
> <Name>
3-Pyridinol, 2-nitro-

> <Source>
DSSTox2DMolFile

> <Tox>
3.870

> <CAS>
15128-82-2

$$$$

  CDK

 11 11  0  0  0  0  0  0  0  0999 V2000
    1.4527    1.9618   -0.0002 O   0  0  0  0  0  0  0  0  0  0  0  0
    0.3493    1.1683    0.0001 C   0  0  0  0  0  0  0  0  0  0  0  0
    0.4239   -0.2153    0.0002 C   0  0  0  0  0  0  0  0  0  0  0  0
   -0.9127    1.7519    0.0002 C   0  0  0  0  0  0  0  0  0  0  0  0
   -0.6539   -1.0313   -0.0001 N   0  0  0  0  0  0  0  0  0  0  0  0
    1.7379   -0.7849   -0.0001 N   0  0  0  0  0  0  0  0  0  0  0  0
   -2.0455    0.9454    0.0001 C   0  0  0  0  0  0  0  0  0  0  0  0
   -1.8637   -0.4281   -0.0002 C   0  0  0  0  0  0  0  0  0  0  0  0
    2.7211   -0.0147   -0.0002 O   0  0  0  0  0  0  0  0  0  0  0  0
    1.8481   -2.0289    0.0003 O   0  0  0  0  0  0  0  0  0  0  0  0
   -3.0572   -1.3240   -0.0001 C   0  0  0  0  0  0  0  0  0  0  0  0
  1  2  1  0  0  0  0 
  3  2  2  0  0  0  0 
  2  4  1  0  0  0  0 
  5  3  1  0  0  0  0 
  6  3  1  0  0  0  0 
  7  4  2  0  0  0  0 
  5  8  2  0  0  0  0 
  9  6  1  0  0  0  0 
 10  6  2  0  0  0  0 
  8  7  1  0  0  0  0 
  8 11  1  0  0  0  0 
M  CHG  1   6   1
M  CHG  1   9  -1
M  END
> <Name>
6-methyl-2-nitropyridin-3-ol

> <Source>
Chemidplus3DMolFile

> <Tox>
3.390

> <CAS>
15128-90-2

$$$$

  CDK

 15 15  0  0  0  0  0  0  0  0999 V2000
    0.9572    0.0000    0.0000 C   0  0  0  0  0  0  0  0  0  0  0  0
    0.9572    0.9572    0.0000 C   0  0  0  0  0  0  0  0  0  0  0  0
    1.8640    1.4106    0.0000 C   0  0  0  0  0  0  0  0  0  0  0  0
    0.9572    1.8640    0.0000 C   0  0  0  0  0  0  0  0  0  0  0  0
    0.0000    1.4106    0.0000 C   0  0  0  0  0  0  0  0  0  0  0  0
    2.8212    0.9572    0.0000 C   0  0  0  0  0  0  0  0  0  0  0  0
    1.8640    2.3174    0.0000 C   0  0  0  0  0  0  0  0  0  0  0  0
    3.7281    1.4106    0.0000 C   0  0  0  0  0  0  0  0  0  0  0  0
    2.8212    2.7709    0.0000 C   0  0  0  0  0  0  0  0  0  0  0  0
    3.7281    2.3174    0.0000 C   0  0  0  0  0  0  0  0  0  0  0  0
    4.6349    2.7709    0.0000 C   0  0  0  0  0  0  0  0  0  0  0  0
    5.5921    2.3174    0.0000 O   0  0  0  0  0  0  0  0  0  0  0  0
    4.6349    3.7281    0.0000 O   0  0  0  0  0  0  0  0  0  0  0  0
    6.4989    2.7709    0.0000 C   0  0  0  0  0  0  0  0  0  0  0  0
    7.4561    2.3174    0.0000 C   0  0  0  0  0  0  0  0  0  0  0  0
  1  2  1  0  0  0  0 
  2  3  1  0  0  0  0 
  2  4  1  0  0  0  0 
  2  5  1  0  0  0  0 
  6  3  2  0  0  0  0 
  3  7  1  0  0  0  0 
  8  6  1  0  0  0  0 
  7  9  2  0  0  0  0 
 10  8  2  0  0  0  0 
  9 10  1  0  0  0  0 
 10 11  1  0  0  0  0 
 11 12  1  0  0  0  0 
 11 13  2  0  0  0  0 
 12 14  1  0  0  0  0 
 14 15  2  0  0  0  0 
M  END
> <Name>
Vinyl 4-(1,1-dimethylethyl)benzoate

> <Source>
NIST2DMolFile

> <Tox>
4.570

> <CAS>
15484-80-7

$$$$

  CDK

 14 13  0  0  0  0  0  0  0  0999 V2000
   -2.1434   -0.2062    0.0000 C   0  0  0  0  0  0  0  0  0  0  0  0
   -2.8579   -0.6188    0.0000 C   0  0  0  0  0  0  0  0  0  0  0  0
   -2.1434    0.6188    0.0000 O   0  0  0  0  0  0  0  0  0  0  0  0
   -1.4289   -0.6188    0.0000 O   0  0  0  0  0  0  0  0  0  0  0  0
   -3.5724   -0.2062    0.0000 C   0  0  0  0  0  0  0  0  0  0  0  0
   -0.7145   -0.2062    0.0000 C   0  0  0  0  0  0  0  0  0  0  0  0
   -4.2868    0.2062    0.0000 N   0  0  0  0  0  0  0  0  0  0  0  0
    0.0000   -0.6188    0.0000 C   0  0  0  0  0  0  0  0  0  0  0  0
    0.7145   -0.2062    0.0000 C   0  0  0  0  0  0  0  0  0  0  0  0
    1.4289   -0.6188    0.0000 C   0  0  0  0  0  0  0  0  0  0  0  0
    2.1434   -0.2062    0.0000 C   0  0  0  0  0  0  0  0  0  0  0  0
    2.8579   -0.6188    0.0000 C   0  0  0  0  0  0  0  0  0  0  0  0
    3.5724   -0.2062    0.0000 C   0  0  0  0  0  0  0  0  0  0  0  0
    4.2868   -0.6188    0.0000 C   0  0  0  0  0  0  0  0  0  0  0  0
  1  2  1  0  0  0  0 
  1  3  2  0  0  0  0 
  1  4  1  0  0  0  0 
  2  5  1  0  0  0  0 
  4  6  1  0  0  0  0 
  5  7  3  0  0  0  0 
  6  8  1  0  0  0  0 
  8  9  1  0  0  0  0 
  9 10  1  0  0  0  0 
 10 11  1  0  0  0  0 
 11 12  1  0  0  0  0 
 12 13  1  0  0  0  0 
 13 14  1  0  0  0  0 
M  END
> <Name>
Aceticacid, cyano-, octyl ester (7CI,8CI,9CI)

> <Source>
Name2DMolFile

> <Tox>
3.900

> <CAS>
15666-97-4

$$$$

  CDK

 10  9  0  0  0  0  0  0  0  0999 V2000
    0.8570    0.9579    0.0000 C   0  0  0  0  0  0  0  0  0  0  0  0
    1.7141    1.4620    0.0000 C   0  0  0  0  0  0  0  0  0  0  0  0
    0.0000    1.4620    0.0000 Br  0  0  0  0  0  0  0  0  0  0  0  0
    2.6215    0.9579    0.0000 C   0  0  0  0  0  0  0  0  0  0  0  0
    3.4786    1.4620    0.0000 C   0  0  0  0  0  0  0  0  0  0  0  0
    4.3356    0.9579    0.0000 C   0  0  0  0  0  0  0  0  0  0  0  0
    5.1927    1.4620    0.0000 O   0  0  0  0  0  0  0  0  0  0  0  0
    6.0497    0.9579    0.0000 C   0  0  0  0  0  0  0  0  0  0  0  0
    6.9572    1.4620    0.0000 C   0  0  0  0  0  0  0  0  0  0  0  0
    6.0497    0.0000    0.0000 O   0  0  0  0  0  0  0  0  0  0  0  0
  1  2  1  0  0  0  0 
  1  3  1  0  0  0  0 
  2  4  1  0  0  0  0 
  4  5  1  0  0  0  0 
  5  6  1  0  0  0  0 
  6  7  1  0  0  0  0 
  7  8  1  0  0  0  0 
  8  9  1  0  0  0  0 
  8 10  2  0  0  0  0 
M  END
> <Name>
5-Bromopentyl acetate

> <Source>
NIST2DMolFile

> <Tox>
3.293

> <CAS>
15848-22-3

$$$$

  CDK

  9  9  0  0  0  0  0  0  0  0999 V2000
    2.9238   -1.5814   -0.0836 Br  0  0  0  0  0  0  0  0  0  0  0  0
    1.4580   -0.3907   -0.0070 C   0  0  0  0  0  0  0  0  0  0  0  0
    0.1719   -0.8798    0.2216 C   0  0  0  0  0  0  0  0  0  0  0  0
    1.6631    0.9781   -0.1804 C   0  0  0  0  0  0  0  0  0  0  0  0
   -0.9093   -0.0001    0.2765 C   0  0  0  0  0  0  0  0  0  0  0  0
    0.5819    1.8577   -0.1255 C   0  0  0  0  0  0  0  0  0  0  0  0
   -2.2843   -0.5231    0.5202 C   0  0  0  0  0  0  0  0  0  0  0  0
   -0.7043    1.3686    0.1029 C   0  0  0  0  0  0  0  0  0  0  0  0
   -2.9009   -0.8294   -0.7245 O   0  0  0  0  0  0  0  0  0  0  0  0
  1  2  1  0  0  0  0 
  3  2  1  0  0  0  0 
  2  4  2  0  0  0  0 
  5  3  2  0  0  0  0 
  6  4  1  0  0  0  0 
  5  7  1  0  0  0  0 
  5  8  1  0  0  0  0 
  8  6  2  0  0  0  0 
  9  7  1  0  0  0  0 
M  END
> <Name>
(3-bromophenyl)methanol

> <Source>
Chemidplus3DMolFile

> <Tox>
3.370

> <CAS>
15852-73-0

$$$$

  CDK

 20 19  0  0  0  0  0  0  0  0999 V2000
    5.2050    1.5014    0.0000 C   0  0  0  0  0  0  0  0  0  0  0  0
    4.3042    1.0010    0.0000 C   0  0  0  0  0  0  0  0  0  0  0  0
    6.0558    1.0010    0.0000 C   0  0  0  0  0  0  0  0  0  0  0  0
    3.4533    1.5014    0.0000 O   0  0  0  0  0  0  0  0  0  0  0  0
    4.3042    0.0000    0.0000 O   0  0  0  0  0  0  0  0  0  0  0  0
    6.9067    1.5014    0.0000 C   0  0  0  0  0  0  0  0  0  0  0  0
    2.6025    1.0010    0.0000 C   0  0  0  0  0  0  0  0  0  0  0  0
    7.8075    1.0010    0.0000 C   0  0  0  0  0  0  0  0  0  0  0  0
    1.7016    1.5014    0.0000 C   0  0  0  0  0  0  0  0  0  0  0  0
    8.6584    1.5014    0.0000 C   0  0  0  0  0  0  0  0  0  0  0  0
    0.8508    1.0010    0.0000 C   0  0  0  0  0  0  0  0  0  0  0  0
    9.5092    1.0010    0.0000 C   0  0  0  0  0  0  0  0  0  0  0  0
    0.0000    1.5014    0.0000 C   0  0  0  0  0  0  0  0  0  0  0  0
   10.4100    1.5014    0.0000 C   0  0  0  0  0  0  0  0  0  0  0  0
   11.2609    1.0010    0.0000 O   0  0  0  0  0  0  0  0  0  0  0  0
   10.4100    2.5024    0.0000 O   0  0  0  0  0  0  0  0  0  0  0  0
   12.1117    1.5014    0.0000 C   0  0  0  0  0  0  0  0  0  0  0  0
   13.0126    1.0010    0.0000 C   0  0  0  0  0  0  0  0  0  0  0  0
   13.8634    1.5014    0.0000 C   0  0  0  0  0  0  0  0  0  0  0  0
   14.7142    1.0010    0.0000 C   0  0  0  0  0  0  0  0  0  0  0  0
  1  2  1  0  0  0  0 
  1  3  1  0  0  0  0 
  2  4  1  0  0  0  0 
  2  5  2  0  0  0  0 
  3  6  1  0  0  0  0 
  4  7  1  0  0  0  0 
  6  8  1  0  0  0  0 
  7  9  1  0  0  0  0 
  8 10  1  0  0  0  0 
  9 11  1  0  0  0  0 
 10 12  1  0  0  0  0 
 11 13  1  0  0  0  0 
 12 14  1  0  0  0  0 
 14 15  1  0  0  0  0 
 14 16  2  0  0  0  0 
 15 17  1  0  0  0  0 
 17 18  1  0  0  0  0 
 18 19  1  0  0  0  0 
 19 20  1  0  0  0  0 
M  END
> <Name>
Octanedioic acid, dibutyl ester

> <Source>
NIST2DMolFile

> <Tox>
4.656

> <CAS>
16090-77-0

$$$$

  CDK

 10  9  0  0  0  0  0  0  0  0999 V2000
    1.9050   -0.4381    0.0336 O   0  0  0  0  0  0  0  0  0  0  0  0
    3.3347   -0.4472   -0.0322 C   0  0  0  0  0  0  0  0  0  0  0  0
    1.3262    0.7905   -0.0313 C   0  0  0  0  0  0  0  0  0  0  0  0
    3.8230   -1.8777    0.0520 C   0  0  0  0  0  0  0  0  0  0  0  0
    1.8895    1.8695   -0.1382 O   0  0  0  0  0  0  0  0  0  0  0  0
   -0.1089    0.7099    0.0420 C   0  0  0  0  0  0  0  0  0  0  0  0
   -1.3062    0.6402    0.1037 C   0  0  0  0  0  0  0  0  0  0  0  0
   -2.7711    0.5549    0.1805 C   0  0  0  0  0  0  0  0  0  0  0  0
   -3.2876   -0.8462   -0.1459 C   0  0  0  0  0  0  0  0  0  0  0  0
   -4.8045   -0.9559   -0.0641 C   0  0  0  0  0  0  0  0  0  0  0  0
  1  2  1  0  0  0  0 
  1  3  1  0  0  0  0 
  2  4  1  0  0  0  0 
  5  3  2  0  0  0  0 
  3  6  1  0  0  0  0 
  7  6  3  0  0  0  0 
  8  7  1  0  0  0  0 
  9  8  1  0  0  0  0 
  9 10  1  0  0  0  0 
M  END
> <Name>
ethyl hex-2-ynoate

> <Source>
Chemidplus3DMolFile

> <Tox>
3.700

> <CAS>
16205-90-6

$$$$

  CDK

 12 12  0  0  0  0  0  0  0  0999 V2000
    3.2330    2.7356    0.0000 O   0  0  0  0  0  0  0  0  0  0  0  0
    2.5366    1.9895    0.0000 S   0  0  0  0  0  0  0  0  0  0  0  0
    1.7906    2.7356    0.0000 O   0  0  0  0  0  0  0  0  0  0  0  0
    1.6413    1.4921    0.0000 C   0  0  0  0  0  0  0  0  0  0  0  0
    3.3822    1.4921    0.0000 C   0  0  0  0  0  0  0  0  0  0  0  0
    0.7958    1.9895    0.0000 C   0  0  0  0  0  0  0  0  0  0  0  0
    4.2774    1.9895    0.0000 C   0  0  0  0  0  0  0  0  0  0  0  0
    3.3822    0.4974    0.0000 C   0  0  0  0  0  0  0  0  0  0  0  0
    0.0000    1.4921    0.0000 C   0  0  0  0  0  0  0  0  0  0  0  0
    5.1230    1.4921    0.0000 C   0  0  0  0  0  0  0  0  0  0  0  0
    4.2774    0.0000    0.0000 C   0  0  0  0  0  0  0  0  0  0  0  0
    5.1230    0.4974    0.0000 C   0  0  0  0  0  0  0  0  0  0  0  0
  1  2  2  0  0  0  0 
  2  3  2  0  0  0  0 
  2  4  1  0  0  0  0 
  2  5  1  0  0  0  0 
  6  4  1  0  0  0  0 
  5  7  2  0  0  0  0 
  8  5  1  0  0  0  0 
  9  6  2  0  0  0  0 
  7 10  1  0  0  0  0 
 11  8  2  0  0  0  0 
 10 12  2  0  0  0  0 
 12 11  1  0  0  0  0 
M  END
> <Name>
Benzene, (2-propenylsulfonyl)-

> <Source>
NIST2DMolFile

> <Tox>
3.310

> <CAS>
16212-05-8

$$$$

  CDK

 15 15  0  0  0  0  0  0  0  0999 V2000
    9.9785   -0.0000    0.0000 N   0  0  0  0  0  0  0  0  0  0  0  0
    9.3099   -1.1575    0.0000 C   0  0  0  0  0  0  0  0  0  0  0  0
    9.9785   -2.3050    0.0000 C   0  0  0  0  0  0  0  0  0  0  0  0
    7.9828   -1.1575    0.0000 C   0  0  0  0  0  0  0  0  0  0  0  0
    9.3099   -3.4625    0.0000 C   0  0  0  0  0  0  0  0  0  0  0  0
    7.3142   -2.3050    0.0000 C   0  0  0  0  0  0  0  0  0  0  0  0
    7.9828   -3.4625    0.0000 C   0  0  0  0  0  0  0  0  0  0  0  0
    7.3142   -4.6101    0.0000 C   0  0  0  0  0  0  0  0  0  0  0  0
    5.9871   -4.6101    0.0000 C   0  0  0  0  0  0  0  0  0  0  0  0
    5.3185   -3.4625    0.0000 C   0  0  0  0  0  0  0  0  0  0  0  0
    3.9914   -3.4625    0.0000 C   0  0  0  0  0  0  0  0  0  0  0  0
    3.3228   -2.3050    0.0000 C   0  0  0  0  0  0  0  0  0  0  0  0
    1.9957   -2.3050    0.0000 C   0  0  0  0  0  0  0  0  0  0  0  0
    1.3271   -1.1575    0.0000 C   0  0  0  0  0  0  0  0  0  0  0  0
    0.0000   -1.1575    0.0000 C   0  0  0  0  0  0  0  0  0  0  0  0
  1  2  1  0  0  0  0 
  2  3  2  0  0  0  0 
  2  4  1  0  0  0  0 
  3  5  1  0  0  0  0 
  6  4  2  0  0  0  0 
  5  7  2  0  0  0  0 
  7  6  1  0  0  0  0 
  7  8  1  0  0  0  0 
  8  9  1  0  0  0  0 
  9 10  1  0  0  0  0 
 10 11  1  0  0  0  0 
 11 12  1  0  0  0  0 
 12 13  1  0  0  0  0 
 13 14  1  0  0  0  0 
 14 15  1  0  0  0  0 
M  END
> <Name>
4-Octylaniline

> <Source>
DSSTox2DMolFile

> <Tox>
5.430

> <CAS>
16245-79-7

$$$$

  CDK

  7  6  0  0  0  0  0  0  0  0999 V2000
    0.0000    1.0000    0.0000 C   0  0  0  0  0  0  0  0  0  0  0  0
    0.8661    1.5000    0.0000 C   0  0  0  0  0  0  0  0  0  0  0  0
    0.8661    2.5000    0.0000 C   0  0  0  0  0  0  0  0  0  0  0  0
    1.7321    1.0000    0.0000 C   0  0  0  0  0  0  0  0  0  0  0  0
    1.7321    0.0000    0.0000 N   0  0  0  0  0  0  0  0  0  0  0  0
    2.5981    1.5000    0.0000 C   0  0  0  0  0  0  0  0  0  0  0  0
    3.4641    1.0000    0.0000 O   0  0  0  0  0  0  0  0  0  0  0  0
  1  2  1  0  0  0  0 
  2  3  1  0  0  0  0 
  2  4  1  0  0  0  0 
  4  5  1  0  0  0  0 
  4  6  1  0  0  0  0 
  6  7  1  0  0  0  0 
M  END
> <Name>
(1)-2-Amino-3-methylbutan-1-ol

> <Source>
NIST2DMolFile

> <Tox>
2.415

> <CAS>
16369-05-4

$$$$

  CDK

  7  6  0  0  0  0  0  0  0  0999 V2000
    0.0000    0.0000    0.0000 C   0  0  0  0  0  0  0  0  0  0  0  0
    0.8769    0.4643    0.0000 C   0  0  0  0  0  0  0  0  0  0  0  0
    1.7539    0.0000    0.0000 C   0  0  0  0  0  0  0  0  0  0  0  0
    2.6824    0.4643    0.0000 N   0  0  0  0  0  0  0  0  0  0  0  0
    3.5594    0.0000    0.0000 C   0  0  0  0  0  0  0  0  0  0  0  0
    4.3847    0.4643    0.0000 C   0  0  0  0  0  0  0  0  0  0  0  0
    5.3133    0.0000    0.0000 O   0  0  0  0  0  0  0  0  0  0  0  0
  1  2  1  0  0  0  0 
  2  3  1  0  0  0  0 
  3  4  1  0  0  0  0 
  4  5  1  0  0  0  0 
  5  6  1  0  0  0  0 
  6  7  1  0  0  0  0 
M  END
> <Name>
Ethanol, 2-(propylamino)-

> <Source>
NIST2DMolFile

> <Tox>
1.316

> <CAS>
16369-21-4

$$$$

  CDK

  6  5  0  0  0  0  0  0  0  0999 V2000
    5.6034    0.9930    0.7982 C   0  0  0  0  0  0  0  0  0  0  0  0
    4.4037    1.6862    1.3131 C   0  0  0  0  0  0  0  0  0  0  0  0
    3.1674    1.2048    1.1736 C   0  0  0  0  0  0  0  0  0  0  0  0
    1.9719    1.9531    1.6585 C   0  0  0  0  0  0  0  0  0  0  0  0
    0.8791    1.0607    1.9883 C   0  0  0  0  0  0  0  0  0  0  0  0
    0.0000    0.3487    2.2412 N   0  0  0  0  0  0  0  0  0  0  0  0
  1  2  1  0  0  0  0 
  3  2  2  0  0  0  0 
  4  3  1  0  0  0  0 
  5  4  1  0  0  0  0 
  5  6  3  0  0  0  0 
M  END
> <Name>
3-Pentenenitrile,(E)- (8CI)

> <Source>
NIST3DMolFile

> <Tox>
2.047

> <CAS>
16529-66-1

$$$$

  CDK

 10 10  0  0  0  0  0  0  0  0999 V2000
    4.3417    1.6155    0.0000 C   0  0  0  0  0  0  0  0  0  0  0  0
    3.4835    2.0699    0.0000 C   0  0  0  0  0  0  0  0  0  0  0  0
    5.1999    1.1107    0.0000 N   0  0  0  0  0  0  0  0  0  0  0  0
    2.6252    1.5650    0.0000 C   0  0  0  0  0  0  0  0  0  0  0  0
    1.7670    2.0194    0.0000 C   0  0  0  0  0  0  0  0  0  0  0  0
    2.6252    0.5553    0.0000 C   0  0  0  0  0  0  0  0  0  0  0  0
    0.8582    1.5145    0.0000 C   0  0  0  0  0  0  0  0  0  0  0  0
    1.7670    0.0505    0.0000 C   0  0  0  0  0  0  0  0  0  0  0  0
    0.8582    0.5048    0.0000 C   0  0  0  0  0  0  0  0  0  0  0  0
    0.0000    0.0000    0.0000 Br  0  0  0  0  0  0  0  0  0  0  0  0
  1  2  1  0  0  0  0 
  1  3  3  0  0  0  0 
  2  4  1  0  0  0  0 
  5  4  2  0  0  0  0 
  4  6  1  0  0  0  0 
  7  5  1  0  0  0  0 
  6  8  2  0  0  0  0 
  9  7  2  0  0  0  0 
  8  9  1  0  0  0  0 
  9 10  1  0  0  0  0 
M  END
> <Name>
Acetonitrile, (p-bromophenyl)-

> <Source>
NIST2DMolFile

> <Tox>
3.600

> <CAS>
16532-79-9

$$$$

  CDK

 12 12  0  0  0  0  0  0  0  0999 V2000
    0.5094    2.5979    0.0000 C   0  0  0  0  0  0  0  0  0  0  0  0
    0.0000    1.7319    0.0000 O   0  0  0  0  0  0  0  0  0  0  0  0
    1.4772    2.5979    0.0000 C   0  0  0  0  0  0  0  0  0  0  0  0
    1.9866    3.4639    0.0000 C   0  0  0  0  0  0  0  0  0  0  0  0
    1.9866    1.7319    0.0000 C   0  0  0  0  0  0  0  0  0  0  0  0
    3.0054    3.4639    0.0000 C   0  0  0  0  0  0  0  0  0  0  0  0
    2.9545    1.7319    0.0000 C   0  0  0  0  0  0  0  0  0  0  0  0
    3.4639    2.5979    0.0000 C   0  0  0  0  0  0  0  0  0  0  0  0
    3.4639    0.8660    0.0000 N   0  0  0  0  0  0  0  0  0  0  0  0
    4.4827    2.5979    0.0000 Cl  0  0  0  0  0  0  0  0  0  0  0  0
    4.4827    0.8660    0.0000 O   0  0  0  0  0  0  0  0  0  0  0  0
    2.9545    0.0000    0.0000 O   0  0  0  0  0  0  0  0  0  0  0  0
  1  2  2  0  0  0  0 
  1  3  1  0  0  0  0 
  4  3  2  0  0  0  0 
  3  5  1  0  0  0  0 
  6  4  1  0  0  0  0 
  5  7  2  0  0  0  0 
  8  6  2  0  0  0  0 
  7  8  1  0  0  0  0 
  7  9  1  0  0  0  0 
  8 10  1  0  0  0  0 
  9 11  2  0  0  0  0 
  9 12  2  0  0  0  0 
M  END
> <Name>
Benzaldehyde, 4-chloro-3-nitro-

> <Source>
NIST2DMolFile

> <Tox>
4.190

> <CAS>
16588-34-4

$$$$

  CDK

 11 10  0  0  0  0  0  0  0  0999 V2000
   -2.0424    0.4429    0.1423 O   0  0  0  0  0  0  0  0  0  0  0  0
   -3.4293    0.7209   -0.0766 C   0  0  0  0  0  0  0  0  0  0  0  0
   -1.6446   -0.8193   -0.1693 C   0  0  0  0  0  0  0  0  0  0  0  0
   -3.7124    2.1555    0.3149 C   0  0  0  0  0  0  0  0  0  0  0  0
   -2.3355   -1.7261   -0.6093 O   0  0  0  0  0  0  0  0  0  0  0  0
   -0.2404   -1.0138    0.0788 C   0  0  0  0  0  0  0  0  0  0  0  0
    0.9318   -1.1737    0.2853 C   0  0  0  0  0  0  0  0  0  0  0  0
    2.3657   -1.3686    0.5398 C   0  0  0  0  0  0  0  0  0  0  0  0
    3.2313   -0.3593   -0.2166 C   0  0  0  0  0  0  0  0  0  0  0  0
    2.9729    1.0875    0.2140 C   0  0  0  0  0  0  0  0  0  0  0  0
    3.9028    2.0539   -0.5034 C   0  0  0  0  0  0  0  0  0  0  0  0
  1  2  1  0  0  0  0 
  1  3  1  0  0  0  0 
  2  4  1  0  0  0  0 
  5  3  2  0  0  0  0 
  6  3  1  0  0  0  0 
  7  6  3  0  0  0  0 
  8  7  1  0  0  0  0 
  9  8  1  0  0  0  0 
  9 10  1  0  0  0  0 
 10 11  1  0  0  0  0 
M  END
> <Name>
ethyl hept-2-ynoate

> <Source>
Chemidplus3DMolFile

> <Tox>
4.110

> <CAS>
16930-95-3

$$$$

  CDK

 14 15  0  0  0  0  0  0  0  0999 V2000
    1.7116    0.4531    0.0000 C   0  0  0  0  0  0  0  0  0  0  0  0
    1.7116    1.5102    0.0000 C   0  0  0  0  0  0  0  0  0  0  0  0
    0.8054    0.0000    0.0000 C   0  0  0  0  0  0  0  0  0  0  0  0
    2.5170    0.0000    0.0000 C   0  0  0  0  0  0  0  0  0  0  0  0
    0.8054    1.9632    0.0000 C   0  0  0  0  0  0  0  0  0  0  0  0
    2.5170    1.9632    0.0000 C   0  0  0  0  0  0  0  0  0  0  0  0
    0.0000    0.4531    0.0000 C   0  0  0  0  0  0  0  0  0  0  0  0
    3.3728    0.4531    0.0000 C   0  0  0  0  0  0  0  0  0  0  0  0
    0.0000    1.5102    0.0000 C   0  0  0  0  0  0  0  0  0  0  0  0
    3.3728    1.5102    0.0000 C   0  0  0  0  0  0  0  0  0  0  0  0
    2.5170    2.9197    0.0000 C   0  0  0  0  0  0  0  0  0  0  0  0
    3.3728    3.4231    0.0000 N   0  0  0  0  0  0  0  0  0  0  0  0
    4.3796    4.0775    0.0000 C   0  0  0  0  0  0  0  0  0  0  0  0
    5.2353    4.6313    0.0000 S   0  0  0  0  0  0  0  0  0  0  0  0
  1  2  1  0  0  0  0 
  1  3  2  0  0  0  0 
  4  1  1  0  0  0  0 
  5  2  2  0  0  0  0 
  2  6  1  0  0  0  0 
  3  7  1  0  0  0  0 
  8  4  2  0  0  0  0 
  9  5  1  0  0  0  0 
  6 10  2  0  0  0  0 
  6 11  1  0  0  0  0 
  7  9  2  0  0  0  0 
 10  8  1  0  0  0  0 
 11 12  1  0  0  0  0 
 12 13  2  0  0  0  0 
 13 14  2  0  0  0  0 
M  END
> <Name>
1-Naphthalenemethyl isothiocyanate

> <Source>
NIST2DMolFile

> <Tox>
6.056

> <CAS>
17112-82-2

$$$$

  CDK

 11 11  0  0  0  0  0  0  0  0999 V2000
    1.9859    1.2707   -1.1171 O   0  0  0  0  0  0  0  0  0  0  0  0
    1.3992    1.0496   -0.0458 C   0  0  0  0  0  0  0  0  0  0  0  0
    2.0207    1.2796    1.1758 N   0  0  0  0  0  0  0  0  0  0  0  0
    0.0260    0.5580   -0.0226 C   0  0  0  0  0  0  0  0  0  0  0  0
   -0.2650   -0.8060   -0.0034 C   0  0  0  0  0  0  0  0  0  0  0  0
   -1.0098    1.4922   -0.0192 C   0  0  0  0  0  0  0  0  0  0  0  0
   -1.5919   -1.2358    0.0190 C   0  0  0  0  0  0  0  0  0  0  0  0
    0.7775   -1.7874   -0.0055 C   0  0  0  0  0  0  0  0  0  0  0  0
   -2.3366    1.0625    0.0034 C   0  0  0  0  0  0  0  0  0  0  0  0
   -2.6276   -0.3015    0.0225 C   0  0  0  0  0  0  0  0  0  0  0  0
    1.6215   -2.5818   -0.0071 N   0  0  0  0  0  0  0  0  0  0  0  0
  1  2  2  0  0  0  0 
  3  2  1  0  0  0  0 
  4  2  1  0  0  0  0 
  4  5  1  0  0  0  0 
  4  6  2  0  0  0  0 
  5  7  2  0  0  0  0 
  5  8  1  0  0  0  0 
  6  9  1  0  0  0  0 
  7 10  1  0  0  0  0 
 11  8  3  0  0  0  0 
  9 10  2  0  0  0  0 
M  END
> <Name>
2-cyanobenzamide

> <Source>
Chemidplus3DMolFile

> <Tox>
2.680

> <CAS>
17174-98-0

$$$$

  CDK

 10  9  0  0  0  0  0  0  0  0999 V2000
    0.0007   -1.5480   -0.0017 C   0  0  0  0  0  0  0  0  0  0  0  0
   -1.2084   -0.7956    0.4912 C   0  0  0  0  0  0  0  0  0  0  0  0
    1.2091   -0.7934   -0.4932 C   0  0  0  0  0  0  0  0  0  0  0  0
    0.0033   -2.7556    0.0019 O   0  0  0  0  0  0  0  0  0  0  0  0
   -1.3411    0.9231   -0.4543 Br  0  0  0  0  0  0  0  0  0  0  0  0
   -2.4675   -1.6229    0.2245 C   0  0  0  0  0  0  0  0  0  0  0  0
   -1.0737   -0.5418    1.9940 C   0  0  0  0  0  0  0  0  0  0  0  0
    1.3399    0.9237    0.4554 Br  0  0  0  0  0  0  0  0  0  0  0  0
    2.4691   -1.6198   -0.2280 C   0  0  0  0  0  0  0  0  0  0  0  0
    1.0740   -0.5371   -1.9955 C   0  0  0  0  0  0  0  0  0  0  0  0
  1  2  1  0  0  0  0 
  1  3  1  0  0  0  0 
  1  4  2  0  0  0  0 
  2  5  1  0  0  0  0 
  2  6  1  0  0  0  0 
  2  7  1  0  0  0  0 
  3  8  1  0  0  0  0 
  3  9  1  0  0  0  0 
  3 10  1  0  0  0  0 
M  END
> <Name>
2,4-Dibromo-2,4-dimethyl-3-pentanone

> <Source>
NIH3DMolFile

> <Tox>
3.513

> <CAS>
17346-16-6

$$$$

  CDK

 16 15  0  0  0  0  0  0  0  0999 V2000
   -3.4463   -0.4950    0.0008 O   0  0  0  0  0  0  0  0  0  0  0  0
   -2.3117    0.3590   -0.0158 C   0  0  0  0  0  0  0  0  0  0  0  0
   -4.6673    0.1295    0.0280 C   0  0  0  0  0  0  0  0  0  0  0  0
   -1.0351   -0.4726   -0.0453 C   0  0  0  0  0  0  0  0  0  0  0  0
   -4.8427    1.3405    0.0387 O   0  0  0  0  0  0  0  0  0  0  0  0
   -5.7581   -0.9129    0.0414 C   0  0  0  0  0  0  0  0  0  0  0  0
    0.2233    0.3994   -0.0845 C   0  0  0  0  0  0  0  0  0  0  0  0
   -7.0963   -0.3107    0.0472 C   0  0  0  0  0  0  0  0  0  0  0  0
    1.4926   -0.4565   -0.0800 C   0  0  0  0  0  0  0  0  0  0  0  0
   -8.1563    0.1616    0.0524 N   0  0  0  0  0  0  0  0  0  0  0  0
    2.7492    0.4167   -0.0890 C   0  0  0  0  0  0  0  0  0  0  0  0
    4.0508   -0.3896   -0.1153 C   0  0  0  0  0  0  0  0  0  0  0  0
    5.3075    0.4812   -0.0495 C   0  0  0  0  0  0  0  0  0  0  0  0
    6.5739   -0.3772   -0.0053 C   0  0  0  0  0  0  0  0  0  0  0  0
    7.8293    0.4886    0.0991 C   0  0  0  0  0  0  0  0  0  0  0  0
    9.0872   -0.3618    0.1770 C   0  0  0  0  0  0  0  0  0  0  0  0
  1  2  1  0  0  0  0 
  1  3  1  0  0  0  0 
  4  2  1  0  0  0  0 
  5  3  2  0  0  0  0 
  3  6  1  0  0  0  0 
  7  4  1  0  0  0  0 
  6  8  1  0  0  0  0 
  9  7  1  0  0  0  0 
 10  8  3  0  0  0  0 
 11  9  1  0  0  0  0 
 11 12  1  0  0  0  0 
 12 13  1  0  0  0  0 
 13 14  1  0  0  0  0 
 14 15  1  0  0  0  0 
 15 16  1  0  0  0  0 
M  END
> <Name>
decyl 2-cyanoacetate

> <Source>
Chemidplus3DMolFile

> <Tox>
4.700

> <CAS>
17686-43-0

$$$$

  CDK

 11 10  0  0  0  0  0  0  0  0999 V2000
    0.0000    0.0000    0.0000 O   0  0  0  0  0  0  0  0  0  0  0  0
    0.9277    0.4639    0.0000 C   0  0  0  0  0  0  0  0  0  0  0  0
    1.8039    0.0000    0.0000 C   0  0  0  0  0  0  0  0  0  0  0  0
    0.9277    1.4947    0.0000 O   0  0  0  0  0  0  0  0  0  0  0  0
    2.6801    0.4639    0.0000 C   0  0  0  0  0  0  0  0  0  0  0  0
    3.5564    0.0000    0.0000 C   0  0  0  0  0  0  0  0  0  0  0  0
    4.3810    0.4639    0.0000 C   0  0  0  0  0  0  0  0  0  0  0  0
    5.2572    0.0000    0.0000 C   0  0  0  0  0  0  0  0  0  0  0  0
    6.1850    0.4639    0.0000 C   0  0  0  0  0  0  0  0  0  0  0  0
    7.0612    0.0000    0.0000 C   0  0  0  0  0  0  0  0  0  0  0  0
    7.9374    0.4639    0.0000 Br  0  0  0  0  0  0  0  0  0  0  0  0
  1  2  1  0  0  0  0 
  2  3  1  0  0  0  0 
  2  4  2  0  0  0  0 
  3  5  1  0  0  0  0 
  5  6  1  0  0  0  0 
  6  7  1  0  0  0  0 
  7  8  1  0  0  0  0 
  9  8  1  0  0  0  0 
 10  9  1  0  0  0  0 
 11 10  1  0  0  0  0 
M  END
> <Name>
Caprylicacid, h-bromo- (4CI)

> <Source>
NIST2DMolFile

> <Tox>
4.323

> <CAS>
17696-11-6

$$$$

  CDK

 16 17  0  0  0  0  0  0  0  0999 V2000
    6.1380    2.2137    0.0000 C   0  0  0  0  0  0  0  0  0  0  0  0
    7.1442    2.2137    0.0000 C   0  0  0  0  0  0  0  0  0  0  0  0
    5.6348    1.3584    0.0000 C   0  0  0  0  0  0  0  0  0  0  0  0
    7.6473    1.3584    0.0000 C   0  0  0  0  0  0  0  0  0  0  0  0
    6.1380    0.5031    0.0000 C   0  0  0  0  0  0  0  0  0  0  0  0
    4.7796    0.8553    0.0000 O   0  0  0  0  0  0  0  0  0  0  0  0
    7.1442    0.5031    0.0000 C   0  0  0  0  0  0  0  0  0  0  0  0
    3.9243    1.3584    0.0000 C   0  0  0  0  0  0  0  0  0  0  0  0
    3.9243    2.3646    0.0000 O   0  0  0  0  0  0  0  0  0  0  0  0
    3.0187    0.8553    0.0000 C   0  0  0  0  0  0  0  0  0  0  0  0
    2.5659    1.7106    0.0000 C   0  0  0  0  0  0  0  0  0  0  0  0
    2.5659    0.0000    0.0000 C   0  0  0  0  0  0  0  0  0  0  0  0
    1.5596    1.7106    0.0000 C   0  0  0  0  0  0  0  0  0  0  0  0
    1.5596    0.0000    0.0000 C   0  0  0  0  0  0  0  0  0  0  0  0
    1.0062    0.8553    0.0000 C   0  0  0  0  0  0  0  0  0  0  0  0
    0.0000    0.8553    0.0000 O   0  0  0  0  0  0  0  0  0  0  0  0
  1  2  2  0  0  0  0 
  3  1  1  0  0  0  0 
  2  4  1  0  0  0  0 
  5  3  2  0  0  0  0 
  3  6  1  0  0  0  0 
  4  7  2  0  0  0  0 
  7  5  1  0  0  0  0 
  8  6  1  0  0  0  0 
  9  8  2  0  0  0  0 
  8 10  1  0  0  0  0 
 11 10  2  0  0  0  0 
 10 12  1  0  0  0  0 
 13 11  1  0  0  0  0 
 12 14  2  0  0  0  0 
 15 13  2  0  0  0  0 
 14 15  1  0  0  0  0 
 16 15  1  0  0  0  0 
M  END
> <Name>
Phenyl 4-hydroxybenzoate

> <Source>
NIST2DMolFile

> <Tox>
4.370

> <CAS>
17696-62-7

$$$$

  CDK

  9  8  0  0  0  0  0  0  0  0999 V2000
   -0.8589   -0.5304   -0.4345 O   0  0  0  0  0  0  0  0  0  0  0  0
   -2.1227    0.0469   -0.0899 C   0  0  0  0  0  0  0  0  0  0  0  0
    0.2026    0.3194   -0.3932 C   0  0  0  0  0  0  0  0  0  0  0  0
   -3.2075   -1.0121   -0.2141 C   0  0  0  0  0  0  0  0  0  0  0  0
   -2.0456    0.6169    1.3182 C   0  0  0  0  0  0  0  0  0  0  0  0
    0.1887    1.5223   -0.6013 O   0  0  0  0  0  0  0  0  0  0  0  0
    1.3998   -0.4768   -0.0475 C   0  0  0  0  0  0  0  0  0  0  0  0
    2.5932    0.1217    0.0590 C   0  0  0  0  0  0  0  0  0  0  0  0
    3.8503   -0.6079    0.4032 C   0  0  0  0  0  0  0  0  0  0  0  0
  1  2  1  0  0  0  0 
  1  3  1  0  0  0  0 
  2  4  1  0  0  0  0 
  2  5  1  0  0  0  0 
  6  3  2  0  0  0  0 
  3  7  1  0  0  0  0 
  7  8  2  0  0  0  0 
  8  9  1  0  0  0  0 
M  END
> <Name>
propan-2-yl but-2-enoate

> <Source>
Chemidplus3DMolFile

> <Tox>
2.218

> <CAS>
18060-77-0

$$$$

  CDK

 12 12  0  0  0  0  0  0  0  0999 V2000
    4.0349    0.0000    0.0000 C   0  0  0  0  0  0  0  0  0  0  0  0
    3.0134    0.0000    0.0000 C   0  0  0  0  0  0  0  0  0  0  0  0
    4.5457    0.8172    0.0000 C   0  0  0  0  0  0  0  0  0  0  0  0
    2.5537    0.8172    0.0000 C   0  0  0  0  0  0  0  0  0  0  0  0
    4.0349    1.7365    0.0000 C   0  0  0  0  0  0  0  0  0  0  0  0
    5.5672    0.8172    0.0000 N   0  0  0  0  0  0  0  0  0  0  0  0
    3.0134    1.7365    0.0000 C   0  0  0  0  0  0  0  0  0  0  0  0
    1.5322    0.8172    0.0000 C   0  0  0  0  0  0  0  0  0  0  0  0
    6.0779    0.0000    0.0000 C   0  0  0  0  0  0  0  0  0  0  0  0
    0.9704    0.0000    0.0000 O   0  0  0  0  0  0  0  0  0  0  0  0
    1.0215    1.6855    0.0000 O   0  0  0  0  0  0  0  0  0  0  0  0
    0.0000    0.0000    0.0000 C   0  0  0  0  0  0  0  0  0  0  0  0
  2  1  2  0  0  0  0 
  1  3  1  0  0  0  0 
  4  2  1  0  0  0  0 
  3  5  2  0  0  0  0 
  3  6  1  0  0  0  0 
  7  4  2  0  0  0  0 
  4  8  1  0  0  0  0 
  5  7  1  0  0  0  0 
  6  9  1  0  0  0  0 
  8 10  1  0  0  0  0 
  8 11  2  0  0  0  0 
 10 12  1  0  0  0  0 
M  END
> <Name>
Methyl 4-methylaminobenzoate

> <Source>
NIST2DMolFile

> <Tox>
3.310

> <CAS>
18358-63-9

$$$$

  CDK

 11 11  0  0  0  0  0  0  0  0999 V2000
    3.0133    2.5781    0.0000 C   0  0  0  0  0  0  0  0  0  0  0  0
    4.0178    2.5781    0.0000 C   0  0  0  0  0  0  0  0  0  0  0  0
    2.5111    3.4486    0.0000 C   0  0  0  0  0  0  0  0  0  0  0  0
    2.5111    1.7411    0.0000 C   0  0  0  0  0  0  0  0  0  0  0  0
    4.5200    3.4486    0.0000 C   0  0  0  0  0  0  0  0  0  0  0  0
    3.0133    4.3191    0.0000 C   0  0  0  0  0  0  0  0  0  0  0  0
    1.5066    1.7411    0.0000 C   0  0  0  0  0  0  0  0  0  0  0  0
    4.0178    4.3191    0.0000 C   0  0  0  0  0  0  0  0  0  0  0  0
    1.0044    2.5781    0.0000 Cl  0  0  0  0  0  0  0  0  0  0  0  0
    1.0044    0.8705    0.0000 C   0  0  0  0  0  0  0  0  0  0  0  0
    0.0000    0.8705    0.0000 O   0  0  0  0  0  0  0  0  0  0  0  0
  2  1  2  0  0  0  0 
  1  3  1  0  0  0  0 
  1  4  1  0  0  0  0 
  5  2  1  0  0  0  0 
  3  6  2  0  0  0  0 
  4  7  2  0  0  0  0 
  8  5  2  0  0  0  0 
  6  8  1  0  0  0  0 
  7  9  1  0  0  0  0 
  7 10  1  0  0  0  0 
 10 11  2  0  0  0  0 
M  END
> <Name>
2-Propenal, 2-chloro-3-phenyl- (9CI)

> <Source>
NIST2DMolFile

> <Tox>
4.730

> <CAS>
18365-42-9

$$$$

  CDK

  8  8  0  0  0  0  0  0  0  0999 V2000
    2.3040   -2.6588    0.0000 N   0  0  0  0  0  0  0  0  0  0  0  0
    1.1520   -1.9953    0.0000 C   0  0  0  0  0  0  0  0  0  0  0  0
    3.4560   -1.9953    0.0000 C   0  0  0  0  0  0  0  0  0  0  0  0
    0.0000   -2.6588    0.0000 C   0  0  0  0  0  0  0  0  0  0  0  0
    1.1520   -0.6635    0.0000 C   0  0  0  0  0  0  0  0  0  0  0  0
    3.4560   -0.6635    0.0000 C   0  0  0  0  0  0  0  0  0  0  0  0
    4.6080   -2.6588    0.0000 Cl  0  0  0  0  0  0  0  0  0  0  0  0
    2.3040   -0.0000    0.0000 C   0  0  0  0  0  0  0  0  0  0  0  0
  1  2  2  0  0  0  0 
  1  3  1  0  0  0  0 
  2  4  1  0  0  0  0 
  2  5  1  0  0  0  0 
  6  3  2  0  0  0  0 
  3  7  1  0  0  0  0 
  5  8  2  0  0  0  0 
  8  6  1  0  0  0  0 
M  END
> <Name>
6-Chloro-2-methylpyridine

> <Source>
DSSTox2DMolFile

> <Tox>
2.520

> <CAS>
18368-63-3

$$$$

  CDK

  9  8  0  0  0  0  0  0  0  0999 V2000
    4.3129    0.5015    0.0000 C   0  0  0  0  0  0  0  0  0  0  0  0
    3.4604    0.0000    0.0000 C   0  0  0  0  0  0  0  0  0  0  0  0
    5.2156    0.0000    0.0000 C   0  0  0  0  0  0  0  0  0  0  0  0
    2.6078    0.5015    0.0000 C   0  0  0  0  0  0  0  0  0  0  0  0
    6.0682    0.5015    0.0000 C   0  0  0  0  0  0  0  0  0  0  0  0
    1.7051    0.0000    0.0000 C   0  0  0  0  0  0  0  0  0  0  0  0
    6.9207    0.0000    0.0000 C   0  0  0  0  0  0  0  0  0  0  0  0
    0.8526    0.5015    0.0000 C   0  0  0  0  0  0  0  0  0  0  0  0
    0.0000    0.0000    0.0000 O   0  0  0  0  0  0  0  0  0  0  0  0
  1  2  1  0  0  0  0 
  1  3  1  0  0  0  0 
  2  4  1  0  0  0  0 
  3  5  1  0  0  0  0 
  4  6  2  0  0  0  0 
  5  7  1  0  0  0  0 
  6  8  1  0  0  0  0 
  8  9  1  0  0  0  0 
M  END
> <Name>
2-Octen-1-ol, (2E)-

> <Source>
NIST2DMolFile

> <Tox>
3.365

> <CAS>
18409-17-1

$$$$

  CDK

 12 12  0  0  0  0  0  0  0  0999 V2000
    5.9827   -3.4580    0.0000 O   0  0  0  0  0  0  0  0  0  0  0  0
    5.3186   -2.3033    0.0000 N   0  0  0  0  0  0  0  0  0  0  0  0
    5.9827   -1.1547    0.0000 O   0  0  0  0  0  0  0  0  0  0  0  0
    3.9905   -2.3033    0.0000 C   0  0  0  0  0  0  0  0  0  0  0  0
    3.3264   -3.4580    0.0000 C   0  0  0  0  0  0  0  0  0  0  0  0
    3.3264   -1.1547    0.0000 C   0  0  0  0  0  0  0  0  0  0  0  0
    3.9905   -4.6067    0.0000 Cl  0  0  0  0  0  0  0  0  0  0  0  0
    1.9922   -3.4580    0.0000 C   0  0  0  0  0  0  0  0  0  0  0  0
    1.9922   -1.1547    0.0000 C   0  0  0  0  0  0  0  0  0  0  0  0
    3.9905   -0.0000    0.0000 Cl  0  0  0  0  0  0  0  0  0  0  0  0
    1.3282   -2.3033    0.0000 C   0  0  0  0  0  0  0  0  0  0  0  0
    0.0000   -2.3033    0.0000 Cl  0  0  0  0  0  0  0  0  0  0  0  0
  1  2  1  0  0  0  0 
  2  3  2  0  0  0  0 
  2  4  1  0  0  0  0 
  4  5  2  0  0  0  0 
  4  6  1  0  0  0  0 
  5  7  1  0  0  0  0 
  5  8  1  0  0  0  0 
  9  6  2  0  0  0  0 
  6 10  1  0  0  0  0 
  8 11  2  0  0  0  0 
 11  9  1  0  0  0  0 
 11 12  1  0  0  0  0 
M  CHG  1   1  -1
M  CHG  1   2   1
M  END
> <Name>
Benzene, 1,3,5-trichloro-2-nitro-

> <Source>
DSSTox2DMolFile

> <Tox>
4.430

> <CAS>
18708-70-8

$$$$

  CDK

  8  7  0  0  0  0  0  0  0  0999 V2000
    3.0964   -0.3942    0.1599 C   0  0  0  0  0  0  0  0  0  0  0  0
    1.8331    0.3119   -0.1446 C   0  0  0  0  0  0  0  0  0  0  0  0
    4.1385   -0.1310   -0.3979 O   0  0  0  0  0  0  0  0  0  0  0  0
    0.7015    0.0062    0.4957 C   0  0  0  0  0  0  0  0  0  0  0  0
   -0.5862    0.7023    0.2373 C   0  0  0  0  0  0  0  0  0  0  0  0
   -1.7319   -0.2902    0.1033 C   0  0  0  0  0  0  0  0  0  0  0  0
   -3.0549    0.4241   -0.1226 C   0  0  0  0  0  0  0  0  0  0  0  0
   -4.1958   -0.5582   -0.2619 C   0  0  0  0  0  0  0  0  0  0  0  0
  1  2  1  0  0  0  0 
  1  3  2  0  0  0  0 
  2  4  2  0  0  0  0 
  4  5  1  0  0  0  0 
  5  6  1  0  0  0  0 
  6  7  1  0  0  0  0 
  7  8  1  0  0  0  0 
M  END
> <Name>
2-Heptenal, (2E)-

> <Source>
DougDB3DMolFile

> <Tox>
4.050

> <CAS>
18829-55-5

$$$$

  CDK

 10  9  0  0  0  0  0  0  0  0999 V2000
    2.2567    1.9477    3.8844 C   0  0  0  0  0  0  0  0  0  0  0  0
    2.1322    1.0611    5.1130 C   0  0  0  0  0  0  0  0  0  0  0  0
    3.4566    1.5571    3.0365 C   0  0  0  0  0  0  0  0  0  0  0  0
    0.9401    1.4506    5.9577 C   0  0  0  0  0  0  0  0  0  0  0  0
    3.5629    2.4433    1.8053 C   0  0  0  0  0  0  0  0  0  0  0  0
    4.8008    2.1260    0.9772 C   0  0  0  0  0  0  0  0  0  0  0  0
    6.0627    2.5541    1.6376 C   0  0  0  0  0  0  0  0  0  0  0  0
    7.2511    2.0330    1.3151 C   0  0  0  0  0  0  0  0  0  0  0  0
    8.5196    2.4596    1.9360 C   0  0  0  0  0  0  0  0  0  0  0  0
    8.6049    3.3085    2.7973 O   0  0  0  0  0  0  0  0  0  0  0  0
  1  2  1  0  0  0  0 
  1  3  1  0  0  0  0 
  2  4  1  0  0  0  0 
  3  5  1  0  0  0  0 
  6  5  1  0  0  0  0 
  7  6  1  0  0  0  0 
  7  8  2  0  0  0  0 
  8  9  1  0  0  0  0 
 10  9  2  0  0  0  0 
M  END
> <Name>
2-Nonenal,(E)- (8CI)

> <Source>
NIST3DMolFile

> <Tox>
4.600

> <CAS>
18829-56-6

$$$$

  CDK

  9  8  0  0  0  0  0  0  0  0999 V2000
    2.2149   -0.9678    0.0699 O   0  0  0  0  0  0  0  0  0  0  0  0
    1.8157    0.3281   -0.0276 C   0  0  0  0  0  0  0  0  0  0  0  0
    3.6292   -1.1802    0.0138 C   0  0  0  0  0  0  0  0  0  0  0  0
    2.5260    1.3140   -0.1560 O   0  0  0  0  0  0  0  0  0  0  0  0
    0.3834    0.4527    0.0381 C   0  0  0  0  0  0  0  0  0  0  0  0
   -0.8120    0.5542    0.0935 C   0  0  0  0  0  0  0  0  0  0  0  0
   -2.2745    0.6783    0.1626 C   0  0  0  0  0  0  0  0  0  0  0  0
   -2.9826   -0.6434   -0.1343 C   0  0  0  0  0  0  0  0  0  0  0  0
   -4.5001   -0.5360   -0.0600 C   0  0  0  0  0  0  0  0  0  0  0  0
  1  2  1  0  0  0  0 
  1  3  1  0  0  0  0 
  4  2  2  0  0  0  0 
  5  2  1  0  0  0  0 
  6  5  3  0  0  0  0 
  7  6  1  0  0  0  0 
  8  7  1  0  0  0  0 
  8  9  1  0  0  0  0 
M  END
> <Name>
methyl hex-2-ynoate

> <Source>
Chemidplus3DMolFile

> <Tox>
3.760

> <CAS>
18937-79-6

$$$$

  CDK

 11 11  0  0  0  0  0  0  0  0999 V2000
    1.3304    0.6901    0.5126 O   0  0  0  0  0  0  0  0  0  0  0  0
    2.2907   -0.3188    0.2030 C   0  0  0  0  0  0  0  0  0  0  0  0
    0.0217    0.3881    0.2924 C   0  0  0  0  0  0  0  0  0  0  0  0
    3.5987    0.3512   -0.1889 C   0  0  0  0  0  0  0  0  0  0  0  0
   -0.8803    1.3984   -0.0414 C   0  0  0  0  0  0  0  0  0  0  0  0
   -0.4178   -0.9314    0.4007 C   0  0  0  0  0  0  0  0  0  0  0  0
    4.6682   -0.6648   -0.5480 C   0  0  0  0  0  0  0  0  0  0  0  0
   -2.2217    1.0895   -0.2668 C   0  0  0  0  0  0  0  0  0  0  0  0
   -1.7593   -1.2403    0.1752 C   0  0  0  0  0  0  0  0  0  0  0  0
   -2.6611   -0.2299   -0.1585 C   0  0  0  0  0  0  0  0  0  0  0  0
   -3.9696   -0.5320   -0.3802 O   0  0  0  0  0  0  0  0  0  0  0  0
  1  2  1  0  0  0  0 
  1  3  1  0  0  0  0 
  4  2  1  0  0  0  0 
  3  5  2  0  0  0  0 
  3  6  1  0  0  0  0 
  4  7  1  0  0  0  0 
  5  8  1  0  0  0  0 
  6  9  2  0  0  0  0 
  8 10  2  0  0  0  0 
  9 10  1  0  0  0  0 
 11 10  1  0  0  0  0 
M  END
> <Name>
4-propoxyphenol

> <Source>
Chemidplus3DMolFile

> <Tox>
3.520

> <CAS>
18979-50-5

$$$$

  CDK

 13 13  0  0  0  0  0  0  0  0999 V2000
   -0.2329    0.8633    0.6265 O   0  0  0  0  0  0  0  0  0  0  0  0
   -1.2543   -0.1187    0.5211 C   0  0  0  0  0  0  0  0  0  0  0  0
    1.0437    0.4624    0.3287 C   0  0  0  0  0  0  0  0  0  0  0  0
   -2.5644    0.5703    0.1665 C   0  0  0  0  0  0  0  0  0  0  0  0
    1.4207   -0.8562    0.5554 C   0  0  0  0  0  0  0  0  0  0  0  0
    1.9476    1.3786   -0.1966 C   0  0  0  0  0  0  0  0  0  0  0  0
   -3.7074   -0.4320    0.0214 C   0  0  0  0  0  0  0  0  0  0  0  0
    2.7196   -1.2644    0.2528 C   0  0  0  0  0  0  0  0  0  0  0  0
    3.2466    0.9702   -0.4992 C   0  0  0  0  0  0  0  0  0  0  0  0
   -5.0094    0.2630   -0.3759 C   0  0  0  0  0  0  0  0  0  0  0  0
    3.6325   -0.3513   -0.2746 C   0  0  0  0  0  0  0  0  0  0  0  0
   -6.1420   -0.7355   -0.5544 C   0  0  0  0  0  0  0  0  0  0  0  0
    4.8997   -0.7497   -0.5717 O   0  0  0  0  0  0  0  0  0  0  0  0
  1  2  1  0  0  0  0 
  1  3  1  0  0  0  0 
  4  2  1  0  0  0  0 
  3  5  2  0  0  0  0 
  3  6  1  0  0  0  0 
  7  4  1  0  0  0  0 
  5  8  1  0  0  0  0 
  6  9  2  0  0  0  0 
  7 10  1  0  0  0  0 
  8 11  2  0  0  0  0 
  9 11  1  0  0  0  0 
 10 12  1  0  0  0  0 
 13 11  1  0  0  0  0 
M  END
> <Name>
4-pentoxyphenol

> <Source>
Chemidplus3DMolFile

> <Tox>
4.360

> <CAS>
18979-53-8

$$$$

  CDK

 14 14  0  0  0  0  0  0  0  0999 V2000
    0.3309    0.8802   -0.6552 O   0  0  0  0  0  0  0  0  0  0  0  0
   -0.6990   -0.0958   -0.5782 C   0  0  0  0  0  0  0  0  0  0  0  0
    1.5981    0.4690   -0.3321 C   0  0  0  0  0  0  0  0  0  0  0  0
   -2.0126    0.5999   -0.2468 C   0  0  0  0  0  0  0  0  0  0  0  0
    1.9712   -0.8507   -0.5587 C   0  0  0  0  0  0  0  0  0  0  0  0
    2.4962    1.3757    0.2188 C   0  0  0  0  0  0  0  0  0  0  0  0
   -3.1629   -0.3994   -0.1336 C   0  0  0  0  0  0  0  0  0  0  0  0
    3.2604   -1.2697   -0.2297 C   0  0  0  0  0  0  0  0  0  0  0  0
    3.7854    0.9567    0.5477 C   0  0  0  0  0  0  0  0  0  0  0  0
   -4.5130    0.2577    0.1669 C   0  0  0  0  0  0  0  0  0  0  0  0
    4.1674   -0.3661    0.3233 C   0  0  0  0  0  0  0  0  0  0  0  0
   -5.6597   -0.7446    0.3046 C   0  0  0  0  0  0  0  0  0  0  0  0
    5.4260   -0.7740    0.6429 O   0  0  0  0  0  0  0  0  0  0  0  0
   -6.9884   -0.0389    0.5300 C   0  0  0  0  0  0  0  0  0  0  0  0
  1  2  1  0  0  0  0 
  1  3  1  0  0  0  0 
  4  2  1  0  0  0  0 
  3  5  2  0  0  0  0 
  3  6  1  0  0  0  0 
  7  4  1  0  0  0  0 
  5  8  1  0  0  0  0 
  6  9  2  0  0  0  0 
  7 10  1  0  0  0  0 
  8 11  2  0  0  0  0 
  9 11  1  0  0  0  0 
 10 12  1  0  0  0  0 
 13 11  1  0  0  0  0 
 12 14  1  0  0  0  0 
M  END
> <Name>
4-hexoxyphenol

> <Source>
Chemidplus3DMolFile

> <Tox>
4.640

> <CAS>
18979-55-0

$$$$

  CDK

  9  9  0  0  0  0  0  0  0  0999 V2000
    2.9684    0.8701    0.0000 C   0  0  0  0  0  0  0  0  0  0  0  0
    1.9960    0.8701    0.0000 C   0  0  0  0  0  0  0  0  0  0  0  0
    3.4802    1.7401    0.0000 C   0  0  0  0  0  0  0  0  0  0  0  0
    1.4842    1.7401    0.0000 C   0  0  0  0  0  0  0  0  0  0  0  0
    1.4842    0.0000    0.0000 Br  0  0  0  0  0  0  0  0  0  0  0  0
    2.9684    2.6102    0.0000 C   0  0  0  0  0  0  0  0  0  0  0  0
    1.9960    2.6102    0.0000 C   0  0  0  0  0  0  0  0  0  0  0  0
    0.4606    1.7401    0.0000 C   0  0  0  0  0  0  0  0  0  0  0  0
    0.0000    0.8701    0.0000 O   0  0  0  0  0  0  0  0  0  0  0  0
  2  1  2  0  0  0  0 
  1  3  1  0  0  0  0 
  4  2  1  0  0  0  0 
  2  5  1  0  0  0  0 
  3  6  2  0  0  0  0 
  7  4  2  0  0  0  0 
  4  8  1  0  0  0  0 
  6  7  1  0  0  0  0 
  8  9  1  0  0  0  0 
M  END
> <Name>
2-Bromobenzyl alcohol

> <Source>
NIST2DMolFile

> <Tox>
3.100

> <CAS>
18982-54-2

$$$$

  CDK

 14 14  0  0  0  0  0  0  0  0999 V2000
    0.8496    1.4993    0.0000 C   0  0  0  0  0  0  0  0  0  0  0  0
    1.6992    0.9995    0.0000 O   0  0  0  0  0  0  0  0  0  0  0  0
    0.0000    0.9995    0.0000 C   0  0  0  0  0  0  0  0  0  0  0  0
    0.8496    2.4988    0.0000 O   0  0  0  0  0  0  0  0  0  0  0  0
    2.5987    1.4993    0.0000 C   0  0  0  0  0  0  0  0  0  0  0  0
    0.0000    0.0000    0.0000 Br  0  0  0  0  0  0  0  0  0  0  0  0
    2.5488    2.4988    0.0000 C   0  0  0  0  0  0  0  0  0  0  0  0
    3.4483    0.9995    0.0000 C   0  0  0  0  0  0  0  0  0  0  0  0
    3.4483    2.9985    0.0000 C   0  0  0  0  0  0  0  0  0  0  0  0
    4.2979    1.4993    0.0000 C   0  0  0  0  0  0  0  0  0  0  0  0
    4.2979    2.4988    0.0000 C   0  0  0  0  0  0  0  0  0  0  0  0
    5.1475    2.9985    0.0000 N   0  0  0  0  0  0  0  0  0  0  0  0
    6.0470    2.4988    0.0000 O   0  0  0  0  0  0  0  0  0  0  0  0
    5.1475    3.9980    0.0000 O   0  0  0  0  0  0  0  0  0  0  0  0
  1  2  1  0  0  0  0 
  1  3  1  0  0  0  0 
  1  4  2  0  0  0  0 
  2  5  1  0  0  0  0 
  3  6  1  0  0  0  0 
  5  7  2  0  0  0  0 
  8  5  1  0  0  0  0 
  7  9  1  0  0  0  0 
 10  8  2  0  0  0  0 
  9 11  2  0  0  0  0 
 11 10  1  0  0  0  0 
 11 12  1  0  0  0  0 
 12 13  2  0  0  0  0 
 12 14  2  0  0  0  0 
M  END
> <Name>
Acetic acid, bromo-, 4-nitrophenyl ester

> <Source>
NIST2DMolFile

> <Tox>
4.810

> <CAS>
19199-82-7

$$$$

  CDK

 11 11  0  0  0  0  0  0  0  0999 V2000
    1.7367    1.5324    0.0000 C   0  0  0  0  0  0  0  0  0  0  0  0
    2.6051    1.0216    0.0000 N   0  0  0  0  0  0  0  0  0  0  0  0
    1.7367    2.5029    0.0000 C   0  0  0  0  0  0  0  0  0  0  0  0
    0.8684    0.9705    0.0000 C   0  0  0  0  0  0  0  0  0  0  0  0
    3.4735    1.5324    0.0000 C   0  0  0  0  0  0  0  0  0  0  0  0
    0.8684    3.0137    0.0000 C   0  0  0  0  0  0  0  0  0  0  0  0
    2.6051    3.0137    0.0000 C   0  0  0  0  0  0  0  0  0  0  0  0
    0.0000    1.5324    0.0000 C   0  0  0  0  0  0  0  0  0  0  0  0
    0.8684    0.0000    0.0000 C   0  0  0  0  0  0  0  0  0  0  0  0
    4.3418    1.9921    0.0000 S   0  0  0  0  0  0  0  0  0  0  0  0
    0.0000    2.5029    0.0000 C   0  0  0  0  0  0  0  0  0  0  0  0
  1  2  1  0  0  0  0 
  3  1  2  0  0  0  0 
  1  4  1  0  0  0  0 
  2  5  2  0  0  0  0 
  6  3  1  0  0  0  0 
  3  7  1  0  0  0  0 
  4  8  2  0  0  0  0 
  4  9  1  0  0  0  0 
  5 10  2  0  0  0  0 
 11  6  2  0  0  0  0 
  8 11  1  0  0  0  0 
M  END
> <Name>
2,6-Xylyl isothiocyanate

> <Source>
NIST2DMolFile

> <Tox>
4.495

> <CAS>
19241-16-8

$$$$

  CDK

  9  9  0  0  0  0  0  0  0  0999 V2000
    1.7493    2.9988    0.0000 Br  0  0  0  0  0  0  0  0  0  0  0  0
    1.7493    1.9992    0.0000 C   0  0  0  0  0  0  0  0  0  0  0  0
    0.8996    1.4994    0.0000 C   0  0  0  0  0  0  0  0  0  0  0  0
    2.5989    1.4994    0.0000 C   0  0  0  0  0  0  0  0  0  0  0  0
    0.0000    1.9992    0.0000 Cl  0  0  0  0  0  0  0  0  0  0  0  0
    0.8996    0.4998    0.0000 C   0  0  0  0  0  0  0  0  0  0  0  0
    3.4985    1.9992    0.0000 Cl  0  0  0  0  0  0  0  0  0  0  0  0
    2.5989    0.4998    0.0000 C   0  0  0  0  0  0  0  0  0  0  0  0
    1.7493    0.0000    0.0000 C   0  0  0  0  0  0  0  0  0  0  0  0
  1  2  1  0  0  0  0 
  3  2  2  0  0  0  0 
  2  4  1  0  0  0  0 
  3  5  1  0  0  0  0 
  6  3  1  0  0  0  0 
  4  7  1  0  0  0  0 
  4  8  2  0  0  0  0 
  9  6  2  0  0  0  0 
  8  9  1  0  0  0  0 
M  END
> <Name>
2-bromo-1,3-dichlorobenzene

> <Source>
NIST2DMolFile

> <Tox>
4.340

> <CAS>
19393-92-1

$$$$

  CDK

 11 11  0  0  0  0  0  0  0  0999 V2000
    0.0000    0.0000    0.0000 C   0  0  0  0  0  0  0  0  0  0  0  0
    0.3800    1.3600    0.0000 O   0  0  0  0  0  0  0  0  0  0  0  0
    1.7000    1.5000    0.0000 C   0  0  0  0  0  0  0  0  0  0  0  0
    2.4800    0.5800    0.0000 O   0  0  0  0  0  0  0  0  0  0  0  0
    2.2000    2.9200    0.0000 C   0  0  0  0  0  0  0  0  0  0  0  0
    1.2800    3.9800    0.0000 C   0  0  0  0  0  0  0  0  0  0  0  0
    3.5800    3.2000    0.0000 C   0  0  0  0  0  0  0  0  0  0  0  0
    1.7200    5.3200    0.0000 C   0  0  0  0  0  0  0  0  0  0  0  0
    4.0200    4.5200    0.0000 C   0  0  0  0  0  0  0  0  0  0  0  0
    0.8600    6.3000    0.0000 O   0  0  0  0  0  0  0  0  0  0  0  0
    3.1000    5.5800    0.0000 C   0  0  0  0  0  0  0  0  0  0  0  0
  1  2  1  0  0  0  0 
  2  3  1  0  0  0  0 
  3  4  2  0  0  0  0 
  3  5  1  0  0  0  0 
  5  6  2  0  0  0  0 
  5  7  1  0  0  0  0 
  6  8  1  0  0  0  0 
  9  7  2  0  0  0  0 
  8 10  1  0  0  0  0 
  8 11  2  0  0  0  0 
 11  9  1  0  0  0  0 
M  END
> <Name>
methyl 3-hydroxybenzoate

> <Source>
NIH3DMolFile

> <Tox>
2.950

> <CAS>
19438-10-9

$$$$

  CDK

  5  4  0  0  0  0  0  0  0  0999 V2000
    0.0000    0.4998    0.0000 C   0  0  0  0  0  0  0  0  0  0  0  0
    0.8996    0.9995    0.0000 C   0  0  0  0  0  0  0  0  0  0  0  0
    0.8996    1.9991    0.0000 Br  0  0  0  0  0  0  0  0  0  0  0  0
    1.7492    0.4998    0.0000 C   0  0  0  0  0  0  0  0  0  0  0  0
    2.5988    0.0000    0.0000 N   0  0  0  0  0  0  0  0  0  0  0  0
  1  2  1  0  0  0  0 
  2  3  1  0  0  0  0 
  2  4  1  0  0  0  0 
  4  5  3  0  0  0  0 
M  END
> <Name>
Propanenitrile, 2-bromo-

> <Source>
NIST2DMolFile

> <Tox>
3.626

> <CAS>
19481-82-4

$$$$

  CDK

 13 13  0  0  0  0  0  0  0  0999 V2000
    3.5000    2.4249    0.0000 C   0  0  0  0  0  0  0  0  0  0  0  0
    4.9000    2.4249    0.0000 C   0  0  0  0  0  0  0  0  0  0  0  0
    2.8000    3.6373    0.0000 O   0  0  0  0  0  0  0  0  0  0  0  0
    2.8000    1.2124    0.0000 N   0  0  0  0  0  0  0  0  0  0  0  0
    5.6000    1.2124    0.0000 C   0  0  0  0  0  0  0  0  0  0  0  0
    1.4000    1.2124    0.0000 C   0  0  0  0  0  0  0  0  0  0  0  0
    7.0000    1.2124    0.0000 C   0  0  0  0  0  0  0  0  0  0  0  0
    0.0000    1.2124    0.0000 S   0  0  0  0  0  0  0  0  0  0  0  0
    7.7000    2.4249    0.0000 C   0  0  0  0  0  0  0  0  0  0  0  0
    7.7000    0.0000    0.0000 C   0  0  0  0  0  0  0  0  0  0  0  0
    9.1000    2.4249    0.0000 C   0  0  0  0  0  0  0  0  0  0  0  0
    9.1000    0.0000    0.0000 C   0  0  0  0  0  0  0  0  0  0  0  0
    9.8000    1.2124    0.0000 C   0  0  0  0  0  0  0  0  0  0  0  0
  1  2  1  0  0  0  0 
  1  3  2  0  0  0  0 
  1  4  1  0  0  0  0 
  2  5  2  0  0  0  0 
  4  6  2  0  0  0  0 
  5  7  1  0  0  0  0 
  6  8  2  0  0  0  0 
  7  9  1  0  0  0  0 
  7 10  2  0  0  0  0 
  9 11  2  0  0  0  0 
 12 10  1  0  0  0  0 
 11 13  1  0  0  0  0 
 13 12  2  0  0  0  0 
M  END
> <Name>
Cinnamic acid,anhydride with isothiocyanic acid (7CI,8CI)

> <Source>
Name2DMolFile

> <Tox>
3.292

> <CAS>
19495-08-0

$$$$

  CDK

  7  7  0  0  0  0  0  0  0  0999 V2000
    0.0000    0.0000    0.0000 Br  0  0  0  0  0  0  0  0  0  0  0  0
   -1.8600   -0.2800   -0.1800 C   0  0  0  0  0  0  0  0  0  0  0  0
   -2.3800   -1.5800   -0.0800 C   0  0  0  0  0  0  0  0  0  0  0  0
   -2.7200    0.7800   -0.4200 C   0  0  0  0  0  0  0  0  0  0  0  0
   -3.7800   -1.7600   -0.2000 C   0  0  0  0  0  0  0  0  0  0  0  0
   -4.1000    0.5400   -0.5400 C   0  0  0  0  0  0  0  0  0  0  0  0
   -4.6200   -0.7200   -0.4400 N   0  0  0  0  0  0  0  0  0  0  0  0
  1  2  1  0  0  0  0 
  2  3  2  0  0  0  0 
  2  4  1  0  0  0  0 
  3  5  1  0  0  0  0 
  6  4  2  0  0  0  0 
  5  7  2  0  0  0  0 
  7  6  1  0  0  0  0 
M  END
> <Name>
4-bromanylpyridine hydrochloride

> <Source>
NIH3DMolFile

> <Tox>
2.440

> <CAS>
19524-06-2

$$$$

  CDK

  5  4  0  0  0  0  0  0  0  0999 V2000
    2.3056   -0.0000    0.0000 O   0  0  0  0  0  0  0  0  0  0  0  0
    2.3056   -1.3308    0.0000 C   0  0  0  0  0  0  0  0  0  0  0  0
    1.1511   -1.9945    0.0000 C   0  0  0  0  0  0  0  0  0  0  0  0
    3.4567   -1.9945    0.0000 C   0  0  0  0  0  0  0  0  0  0  0  0
    0.0000   -1.3308    0.0000 Br  0  0  0  0  0  0  0  0  0  0  0  0
  1  2  1  0  0  0  0 
  2  3  1  0  0  0  0 
  2  4  1  0  0  0  0 
  3  5  1  0  0  0  0 
M  END
> <Name>
2-Propanol, 1-bromo-

> <Source>
DSSTox2DMolFile

> <Tox>
1.812

> <CAS>
19686-73-8

$$$$

  CDK

  7  6  0  0  0  0  0  0  0  0999 V2000
    4.6414    2.4099    1.5352 C   0  0  0  0  0  0  0  0  0  0  0  0
    3.4234    1.4776    1.3617 C   0  0  0  0  0  0  0  0  0  0  0  0
    5.8793    1.7301    1.2564 C   0  0  0  0  0  0  0  0  0  0  0  0
    2.1223    2.2704    1.5537 C   0  0  0  0  0  0  0  0  0  0  0  0
    3.4234    0.4366    2.3199 O   0  0  0  0  0  0  0  0  0  0  0  0
    6.9094    1.1778    1.0249 C   0  0  0  0  0  0  0  0  0  0  0  0
    0.9126    1.5094    1.0595 C   0  0  0  0  0  0  0  0  0  0  0  0
  1  2  1  0  0  0  0 
  1  3  1  0  0  0  0 
  2  4  1  0  0  0  0 
  2  5  1  0  0  0  0 
  3  6  3  0  0  0  0 
  4  7  1  0  0  0  0 
M  END
> <Name>
5-Hexyn-3-ol

> <Source>
NIST3DMolFile

> <Tox>
1.596

> <CAS>
19780-84-8

$$$$

  CDK

  8  7  0  0  0  0  0  0  0  0999 V2000
    1.0156    3.1855    1.8436 C   0  0  0  0  0  0  0  0  0  0  0  0
    2.0066    4.2720    2.2117 C   0  0  0  0  0  0  0  0  0  0  0  0
    3.3455    3.7568    2.3290 C   0  0  0  0  0  0  0  0  0  0  0  0
    4.4560    3.3338    2.4295 C   0  0  0  0  0  0  0  0  0  0  0  0
    5.7965    2.8292    2.5610 C   0  0  0  0  0  0  0  0  0  0  0  0
    6.1712    1.8911    1.3936 C   0  0  0  0  0  0  0  0  0  0  0  0
    6.2061    0.5805    1.9319 O   0  0  0  0  0  0  0  0  0  0  0  0
    7.5191    2.2816    0.7868 C   0  0  0  0  0  0  0  0  0  0  0  0
  1  2  1  0  0  0  0 
  2  3  1  0  0  0  0 
  3  4  3  0  0  0  0 
  4  5  1  0  0  0  0 
  5  6  1  0  0  0  0 
  6  7  1  0  0  0  0 
  6  8  1  0  0  0  0 
M  END
> <Name>
Hept-4-yn-2-ol

> <Source>
NIST3DMolFile

> <Tox>
2.384

> <CAS>
19781-81-8

$$$$

  CDK

 16 17  0  0  0  0  0  0  0  0999 V2000
   -1.6617    3.9924    0.3894 O   0  0  0  0  0  0  0  0  0  0  0  0
   -1.5133    2.7540   -0.2934 C   0  0  0  0  0  0  0  0  0  0  0  0
   -0.2230    2.0864    0.1775 C   0  0  0  0  0  0  0  0  0  0  0  0
    0.0171    0.7034   -0.5048 C   0  0  0  0  0  0  0  0  0  0  0  0
   -1.0649   -0.2984   -0.2799 C   0  0  0  0  0  0  0  0  0  0  0  0
    1.4105    0.1416   -0.1790 C   0  0  0  0  0  0  0  0  0  0  0  0
   -1.3290   -1.2685   -1.2467 C   0  0  0  0  0  0  0  0  0  0  0  0
   -1.8129   -0.2650    0.8970 C   0  0  0  0  0  0  0  0  0  0  0  0
    2.4531    0.4612   -1.0126 C   0  0  0  0  0  0  0  0  0  0  0  0
    1.5493   -0.6543    0.9305 C   0  0  0  0  0  0  0  0  0  0  0  0
   -2.3408   -2.2053   -1.0366 C   0  0  0  0  0  0  0  0  0  0  0  0
   -2.8247   -1.2019    1.1071 C   0  0  0  0  0  0  0  0  0  0  0  0
    3.7174   -0.0486   -0.7171 C   0  0  0  0  0  0  0  0  0  0  0  0
    2.8137   -1.1640    1.2260 C   0  0  0  0  0  0  0  0  0  0  0  0
   -3.0887   -2.1720    0.1403 C   0  0  0  0  0  0  0  0  0  0  0  0
    3.8978   -0.8611    0.4021 C   0  0  0  0  0  0  0  0  0  0  0  0
  1  2  1  0  0  0  0 
  3  2  1  0  0  0  0 
  4  3  1  0  0  0  0 
  4  5  1  0  0  0  0 
  4  6  1  0  0  0  0 
  5  7  2  0  0  0  0 
  5  8  1  0  0  0  0 
  6  9  2  0  0  0  0 
  6 10  1  0  0  0  0 
  7 11  1  0  0  0  0 
  8 12  2  0  0  0  0 
  9 13  1  0  0  0  0 
 10 14  2  0  0  0  0 
 11 15  2  0  0  0  0 
 12 15  1  0  0  0  0 
 13 16  2  0  0  0  0 
 14 16  1  0  0  0  0 
M  END
> <Name>
3,3-diphenylpropan-1-ol

> <Source>
Chemidplus3DMolFile

> <Tox>
4.040

> <CAS>
20017-67-8

$$$$

  CDK

 12 12  0  0  0  0  0  0  0  0999 V2000
    5.9827   -3.4580    0.0000 O   0  0  0  0  0  0  0  0  0  0  0  0
    5.3186   -2.3033    0.0000 N   0  0  0  0  0  0  0  0  0  0  0  0
    5.9827   -1.1547    0.0000 O   0  0  0  0  0  0  0  0  0  0  0  0
    3.9905   -2.3033    0.0000 C   0  0  0  0  0  0  0  0  0  0  0  0
    3.3264   -3.4580    0.0000 C   0  0  0  0  0  0  0  0  0  0  0  0
    3.3264   -1.1547    0.0000 C   0  0  0  0  0  0  0  0  0  0  0  0
    1.9922   -3.4580    0.0000 C   0  0  0  0  0  0  0  0  0  0  0  0
    1.9922   -1.1547    0.0000 C   0  0  0  0  0  0  0  0  0  0  0  0
    1.3282   -2.3033    0.0000 C   0  0  0  0  0  0  0  0  0  0  0  0
    1.3282   -4.6067    0.0000 Cl  0  0  0  0  0  0  0  0  0  0  0  0
    1.3282   -0.0000    0.0000 Cl  0  0  0  0  0  0  0  0  0  0  0  0
    0.0000   -2.3033    0.0000 Cl  0  0  0  0  0  0  0  0  0  0  0  0
  1  2  1  0  0  0  0 
  2  3  2  0  0  0  0 
  2  4  1  0  0  0  0 
  4  5  2  0  0  0  0 
  4  6  1  0  0  0  0 
  5  7  1  0  0  0  0 
  8  6  2  0  0  0  0 
  7  9  2  0  0  0  0 
  7 10  1  0  0  0  0 
  9  8  1  0  0  0  0 
  8 11  1  0  0  0  0 
  9 12  1  0  0  0  0 
M  CHG  1   1  -1
M  CHG  1   2   1
M  END
> <Name>
1,2,3-Trichloro-5-nitrobenzene

> <Source>
DSSTox2DMolFile

> <Tox>
4.550

> <CAS>
20098-48-0

$$$$

  CDK

 10  9  0  0  0  0  0  0  0  0999 V2000
    3.4592    1.5040    0.0000 C   0  0  0  0  0  0  0  0  0  0  0  0
    2.6069    1.0027    0.0000 C   0  0  0  0  0  0  0  0  0  0  0  0
    4.3115    1.0027    0.0000 C   0  0  0  0  0  0  0  0  0  0  0  0
    1.7045    1.5040    0.0000 O   0  0  0  0  0  0  0  0  0  0  0  0
    5.2139    1.5040    0.0000 C   0  0  0  0  0  0  0  0  0  0  0  0
    0.8523    1.0027    0.0000 C   0  0  0  0  0  0  0  0  0  0  0  0
    6.0661    1.0027    0.0000 C   0  0  0  0  0  0  0  0  0  0  0  0
    0.8523    0.0000    0.0000 C   0  0  0  0  0  0  0  0  0  0  0  0
    0.0000    1.5040    0.0000 O   0  0  0  0  0  0  0  0  0  0  0  0
    6.9184    1.5040    0.0000 Cl  0  0  0  0  0  0  0  0  0  0  0  0
  1  2  1  0  0  0  0 
  1  3  1  0  0  0  0 
  2  4  1  0  0  0  0 
  3  5  1  0  0  0  0 
  4  6  1  0  0  0  0 
  5  7  1  0  0  0  0 
  6  8  1  0  0  0  0 
  6  9  2  0  0  0  0 
  7 10  1  0  0  0  0 
M  END
> <Name>
1-Pentanol, 5-chloro-, acetate

> <Source>
NIST2DMolFile

> <Tox>
2.869

> <CAS>
20395-28-2

$$$$

  CDK

 10 10  0  0  0  0  0  0  0  0999 V2000
    2.9423    0.0000    0.0000 C   0  0  0  0  0  0  0  0  0  0  0  0
    2.4436    0.8977    0.0000 C   0  0  0  0  0  0  0  0  0  0  0  0
    3.9896    0.0000    0.0000 C   0  0  0  0  0  0  0  0  0  0  0  0
    2.9423    1.7454    0.0000 C   0  0  0  0  0  0  0  0  0  0  0  0
    1.4462    0.8977    0.0000 S   0  0  0  0  0  0  0  0  0  0  0  0
    4.4384    0.8977    0.0000 C   0  0  0  0  0  0  0  0  0  0  0  0
    3.9397    1.7454    0.0000 C   0  0  0  0  0  0  0  0  0  0  0  0
    0.9974    1.7454    0.0000 C   0  0  0  0  0  0  0  0  0  0  0  0
    0.9974    0.0000    0.0000 O   0  0  0  0  0  0  0  0  0  0  0  0
    0.0000    1.7454    0.0000 C   0  0  0  0  0  0  0  0  0  0  0  0
  2  1  2  0  0  0  0 
  1  3  1  0  0  0  0 
  4  2  1  0  0  0  0 
  2  5  1  0  0  0  0 
  3  6  2  0  0  0  0 
  7  4  2  0  0  0  0 
  5  8  1  0  0  0  0 
  5  9  2  0  0  0  0 
  6  7  1  0  0  0  0 
 10  8  2  0  0  0  0 
M  END
> <Name>
Phenyl vinyl sulphoxide

> <Source>
NIST2DMolFile

> <Tox>
3.160

> <CAS>
20451-53-0

$$$$

  CDK

  9  8  0  0  0  0  0  0  0  0999 V2000
    3.4741    1.4889    0.0000 O   0  0  0  0  0  0  0  0  0  0  0  0
    2.5808    0.9926    0.0000 C   0  0  0  0  0  0  0  0  0  0  0  0
    4.3178    0.9926    0.0000 C   0  0  0  0  0  0  0  0  0  0  0  0
    1.7371    1.4889    0.0000 C   0  0  0  0  0  0  0  0  0  0  0  0
    2.5808    0.0000    0.0000 O   0  0  0  0  0  0  0  0  0  0  0  0
    5.1616    1.5385    0.0000 C   0  0  0  0  0  0  0  0  0  0  0  0
    0.8933    0.9926    0.0000 C   0  0  0  0  0  0  0  0  0  0  0  0
    6.0549    1.0422    0.0000 C   0  0  0  0  0  0  0  0  0  0  0  0
    0.0000    1.4889    0.0000 C   0  0  0  0  0  0  0  0  0  0  0  0
  1  2  1  0  0  0  0 
  1  3  1  0  0  0  0 
  2  4  1  0  0  0  0 
  2  5  2  0  0  0  0 
  3  6  1  0  0  0  0 
  4  7  2  0  0  0  0 
  6  8  2  0  0  0  0 
  7  9  1  0  0  0  0 
M  END
> <Name>
 Crotonic acid, allyl ester (6CI,7CI,8CI)

> <Source>
NIST2DMolFile

> <Tox>
2.519

> <CAS>
20474-93-5

$$$$

  CDK

  9  8  0  0  0  0  0  0  0  0999 V2000
    3.2281    2.3396    2.8479 O   0  0  0  0  0  0  0  0  0  0  0  0
    1.7948    2.1766    2.9804 C   0  0  0  0  0  0  0  0  0  0  0  0
    4.0163    1.4596    2.1746 C   0  0  0  0  0  0  0  0  0  0  0  0
    1.3907    3.4267    3.7790 C   0  0  0  0  0  0  0  0  0  0  0  0
    1.4338    0.9237    3.7813 C   0  0  0  0  0  0  0  0  0  0  0  0
    1.0813    2.1858    1.6277 C   0  0  0  0  0  0  0  0  0  0  0  0
    5.4701    1.8951    2.1663 C   0  0  0  0  0  0  0  0  0  0  0  0
    3.5626    0.4562    1.6606 O   0  0  0  0  0  0  0  0  0  0  0  0
    5.8065    2.6067    0.8746 C   0  0  0  0  0  0  0  0  0  0  0  0
  1  2  1  0  0  0  0 
  1  3  1  0  0  0  0 
  2  4  1  0  0  0  0 
  2  5  1  0  0  0  0 
  2  6  1  0  0  0  0 
  3  7  1  0  0  0  0 
  3  8  2  0  0  0  0 
  7  9  1  0  0  0  0 
M  END
> <Name>
Propanoic acid, 1,1-dimethylethyl ester

> <Source>
NIST3DMolFile

> <Tox>
2.591

> <CAS>
20487-40-5

$$$$

  CDK

  8  7  0  0  0  0  0  0  0  0999 V2000
    7.3872    0.9101    2.0902 C   0  0  0  0  0  0  0  0  0  0  0  0
    6.1531    1.2884    2.6607 O   0  0  0  0  0  0  0  0  0  0  0  0
    5.5385    2.4223    2.2041 C   0  0  0  0  0  0  0  0  0  0  0  0
    6.0738    3.0731    1.3300 O   0  0  0  0  0  0  0  0  0  0  0  0
    4.2239    2.7112    2.8986 C   0  0  0  0  0  0  0  0  0  0  0  0
    3.1100    2.0210    2.1927 C   0  0  0  0  0  0  0  0  0  0  0  0
    2.0636    2.6783    1.6901 C   0  0  0  0  0  0  0  0  0  0  0  0
    0.9347    2.0035    1.0139 C   0  0  0  0  0  0  0  0  0  0  0  0
  1  2  1  0  0  0  0 
  2  3  1  0  0  0  0 
  3  4  2  0  0  0  0 
  3  5  1  0  0  0  0 
  5  6  1  0  0  0  0 
  7  6  2  0  0  0  0 
  8  7  1  0  0  0  0 
M  END
> <Name>
(E)-Pent-3-enoic acid methyl ester

> <Source>
NIST3DMolFile

> <Tox>
2.724

> <CAS>
20515-19-9

$$$$

  CDK

  8  8  0  0  0  0  0  0  0  0999 V2000
    0.0000   -2.8932    0.0000 C   0  0  0  0  0  0  0  0  0  0  0  0
    1.0772   -2.1098    0.0000 C   0  0  0  0  0  0  0  0  0  0  0  0
    1.0772   -0.7834    0.0000 C   0  0  0  0  0  0  0  0  0  0  0  0
    2.3413   -2.5238    0.0000 N   0  0  0  0  0  0  0  0  0  0  0  0
    0.0000   -0.0000    0.0000 C   0  0  0  0  0  0  0  0  0  0  0  0
    2.3413   -0.3694    0.0000 O   0  0  0  0  0  0  0  0  0  0  0  0
    3.1202   -1.4466    0.0000 C   0  0  0  0  0  0  0  0  0  0  0  0
    4.4511   -1.4466    0.0000 C   0  0  0  0  0  0  0  0  0  0  0  0
  1  2  1  0  0  0  0 
  2  3  2  0  0  0  0 
  2  4  1  0  0  0  0 
  3  5  1  0  0  0  0 
  3  6  1  0  0  0  0 
  7  4  2  0  0  0  0 
  6  7  1  0  0  0  0 
  7  8  1  0  0  0  0 
M  END
> <Name>
2,4,5-Trimethyloxazole

> <Source>
DSSTox2DMolFile

> <Tox>
1.990

> <CAS>
20662-84-4

$$$$

  CDK

  7  6  0  0  0  0  0  0  0  0999 V2000
    0.7161    1.0963    2.3085 C   0  0  0  0  0  0  0  0  0  0  0  0
    2.0095    1.6649    2.0766 C   0  0  0  0  0  0  0  0  0  0  0  0
    3.0869    2.1387    1.8849 C   0  0  0  0  0  0  0  0  0  0  0  0
    4.4032    2.7176    1.6508 C   0  0  0  0  0  0  0  0  0  0  0  0
    4.7672    2.6567    0.2812 O   0  0  0  0  0  0  0  0  0  0  0  0
    4.4219    4.1965    2.0743 C   0  0  0  0  0  0  0  0  0  0  0  0
    5.8310    4.7231    2.2260 C   0  0  0  0  0  0  0  0  0  0  0  0
  1  2  1  0  0  0  0 
  2  3  3  0  0  0  0 
  3  4  1  0  0  0  0 
  4  5  1  0  0  0  0 
  4  6  1  0  0  0  0 
  6  7  1  0  0  0  0 
M  END
> <Name>
4-Hexyn-3-ol

> <Source>
NIST3DMolFile

> <Tox>
2.805

> <CAS>
20739-59-7

$$$$

  CDK

 10  9  0  0  0  0  0  0  0  0999 V2000
    2.3907    0.1111    0.0000 S   0  0  0  0  0  0  0  0  0  0  0  0
    2.3907   -0.7139    0.0000 C   0  0  0  0  0  0  0  0  0  0  0  0
    3.1052   -1.1264    0.0000 N   0  0  0  0  0  0  0  0  0  0  0  0
    1.6763   -1.1264    0.0000 N   0  0  0  0  0  0  0  0  0  0  0  0
    0.9618   -0.7139    0.0000 C   0  0  0  0  0  0  0  0  0  0  0  0
    0.2473   -0.3014    0.0000 C   0  0  0  0  0  0  0  0  0  0  0  0
   -0.4672    0.1111    0.0000 C   0  0  0  0  0  0  0  0  0  0  0  0
   -1.1816    0.5236    0.0000 C   0  0  0  0  0  0  0  0  0  0  0  0
   -1.8961    0.9361    0.0000 C   0  0  0  0  0  0  0  0  0  0  0  0
   -2.6106    1.3486    0.0000 C   0  0  0  0  0  0  0  0  0  0  0  0
  1  2  2  0  0  0  0 
  2  3  1  0  0  0  0 
  2  4  1  0  0  0  0 
  4  5  1  0  0  0  0 
  5  6  1  0  0  0  0 
  6  7  1  0  0  0  0 
  7  8  1  0  0  0  0 
  8  9  1  0  0  0  0 
  9 10  1  0  0  0  0 
M  END
> <Name>
Urea, 1-hexyl-2-thio- (6CI,7CI,8CI)

> <Source>
Smiles

> <Tox>
3.860

> <CAS>
21071-27-2

$$$$

  CDK

  8  8  0  0  0  0  0  0  0  0999 V2000
   -0.4051   -0.6253    0.0000 O   0  0  0  0  0  0  0  0  0  0  0  0
    0.3486   -0.2898    0.0000 C   0  0  0  0  0  0  0  0  0  0  0  0
   -0.9571   -0.0122    0.0000 C   0  0  0  0  0  0  0  0  0  0  0  0
    0.2624    0.5307    0.0000 C   0  0  0  0  0  0  0  0  0  0  0  0
    1.0631   -0.7023    0.0000 C   0  0  0  0  0  0  0  0  0  0  0  0
   -0.5446    0.7023    0.0000 C   0  0  0  0  0  0  0  0  0  0  0  0
   -1.7776   -0.0985    0.0000 Cl  0  0  0  0  0  0  0  0  0  0  0  0
    1.7776   -0.2898    0.0000 O   0  0  0  0  0  0  0  0  0  0  0  0
  1  2  1  0  0  0  0 
  1  3  1  0  0  0  0 
  2  4  2  0  0  0  0 
  2  5  1  0  0  0  0 
  6  3  2  0  0  0  0 
  3  7  1  0  0  0  0 
  4  6  1  0  0  0  0 
  5  8  2  0  0  0  0 
M  END
> <Name>
2-Furaldehyde,5-chloro- (6CI,7CI,8CI)

> <Source>
Name2DMolFile

> <Tox>
3.070

> <CAS>
21508-19-0

$$$$

  CDK

 11 10  0  0  0  0  0  0  0  0999 V2000
    0.0000    0.5047    0.0000 O   0  0  0  0  0  0  0  0  0  0  0  0
    0.9085    0.0000    0.0000 C   0  0  0  0  0  0  0  0  0  0  0  0
    1.8170    0.5047    0.0000 C   0  0  0  0  0  0  0  0  0  0  0  0
    2.6751    0.0000    0.0000 C   0  0  0  0  0  0  0  0  0  0  0  0
    3.5331    0.5047    0.0000 C   0  0  0  0  0  0  0  0  0  0  0  0
    4.3912    0.0000    0.0000 C   0  0  0  0  0  0  0  0  0  0  0  0
    5.1987    0.5047    0.0000 C   0  0  0  0  0  0  0  0  0  0  0  0
    6.1072    0.0000    0.0000 C   0  0  0  0  0  0  0  0  0  0  0  0
    7.0158    0.5047    0.0000 C   0  0  0  0  0  0  0  0  0  0  0  0
    7.0158    1.4132    0.0000 C   0  0  0  0  0  0  0  0  0  0  0  0
    7.8738    1.9180    0.0000 C   0  0  0  0  0  0  0  0  0  0  0  0
  1  2  2  0  0  0  0 
  2  3  1  0  0  0  0 
  3  4  1  0  0  0  0 
  4  5  1  0  0  0  0 
  5  6  1  0  0  0  0 
  6  7  1  0  0  0  0 
  7  8  1  0  0  0  0 
  9  8  2  0  0  0  0 
  9 10  1  0  0  0  0 
 10 11  1  0  0  0  0 
M  END
> <Name>
7-Decenal, (7Z)-

> <Source>
NIST2DMolFile

> <Tox>
3.949

> <CAS>
21661-97-2

$$$$

  CDK

 11 11  0  0  0  0  0  0  0  0999 V2000
    1.6711    0.5064    0.0000 C   0  0  0  0  0  0  0  0  0  0  0  0
    1.6711    1.5698    0.0000 C   0  0  0  0  0  0  0  0  0  0  0  0
    0.8609    0.0000    0.0000 N   0  0  0  0  0  0  0  0  0  0  0  0
    2.5826    0.0000    0.0000 O   0  0  0  0  0  0  0  0  0  0  0  0
    0.8609    1.9750    0.0000 C   0  0  0  0  0  0  0  0  0  0  0  0
    2.5320    2.0256    0.0000 N   0  0  0  0  0  0  0  0  0  0  0  0
    0.0000    0.5064    0.0000 C   0  0  0  0  0  0  0  0  0  0  0  0
    0.0000    1.5698    0.0000 C   0  0  0  0  0  0  0  0  0  0  0  0
    0.8609    2.9878    0.0000 C   0  0  0  0  0  0  0  0  0  0  0  0
    3.4435    1.5698    0.0000 O   0  0  0  0  0  0  0  0  0  0  0  0
    2.5320    3.0384    0.0000 O   0  0  0  0  0  0  0  0  0  0  0  0
  2  1  2  0  0  0  0 
  1  3  1  0  0  0  0 
  1  4  1  0  0  0  0 
  5  2  1  0  0  0  0 
  2  6  1  0  0  0  0 
  3  7  2  0  0  0  0 
  8  5  2  0  0  0  0 
  5  9  1  0  0  0  0 
  6 10  2  0  0  0  0 
  6 11  2  0  0  0  0 
  7  8  1  0  0  0  0 
M  END
> <Name>
2-Pyridinol,4-methyl-3-nitro- (8CI)

> <Source>
NIST2DMolFile

> <Tox>
2.500

> <CAS>
21901-18-8

$$$$

  CDK

 11 11  0  0  0  0  0  0  0  0999 V2000
    0.8552    1.5092    0.0000 C   0  0  0  0  0  0  0  0  0  0  0  0
    1.7607    2.0122    0.0000 C   0  0  0  0  0  0  0  0  0  0  0  0
    0.8552    0.5031    0.0000 C   0  0  0  0  0  0  0  0  0  0  0  0
    2.6159    1.5092    0.0000 C   0  0  0  0  0  0  0  0  0  0  0  0
    1.7607    2.9680    0.0000 C   0  0  0  0  0  0  0  0  0  0  0  0
    0.0000    0.0000    0.0000 N   0  0  0  0  0  0  0  0  0  0  0  0
    1.7607    0.0000    0.0000 N   0  0  0  0  0  0  0  0  0  0  0  0
    2.6159    0.5031    0.0000 C   0  0  0  0  0  0  0  0  0  0  0  0
    3.4710    2.0122    0.0000 N   0  0  0  0  0  0  0  0  0  0  0  0
    4.3765    1.5092    0.0000 O   0  0  0  0  0  0  0  0  0  0  0  0
    3.4710    2.9680    0.0000 O   0  0  0  0  0  0  0  0  0  0  0  0
  1  2  2  0  0  0  0 
  3  1  1  0  0  0  0 
  2  4  1  0  0  0  0 
  2  5  1  0  0  0  0 
  3  6  1  0  0  0  0 
  7  3  2  0  0  0  0 
  4  8  2  0  0  0  0 
  4  9  1  0  0  0  0 
  8  7  1  0  0  0  0 
  9 10  2  0  0  0  0 
  9 11  2  0  0  0  0 
M  END
> <Name>
(4-Methyl-5-nitropyridin-2-yl)amine

> <Source>
NIST2DMolFile

> <Tox>
3.370

> <CAS>
21901-40-6

$$$$

  CDK

 11 11  0  0  0  0  0  0  0  0999 V2000
    3.4435    0.5064    0.0000 C   0  0  0  0  0  0  0  0  0  0  0  0
    3.4435    1.5698    0.0000 C   0  0  0  0  0  0  0  0  0  0  0  0
    2.6333    0.0000    0.0000 N   0  0  0  0  0  0  0  0  0  0  0  0
    4.3550    0.0000    0.0000 O   0  0  0  0  0  0  0  0  0  0  0  0
    2.6333    1.9750    0.0000 C   0  0  0  0  0  0  0  0  0  0  0  0
    1.7724    0.5064    0.0000 C   0  0  0  0  0  0  0  0  0  0  0  0
    1.7724    1.5698    0.0000 C   0  0  0  0  0  0  0  0  0  0  0  0
    2.6333    2.9878    0.0000 C   0  0  0  0  0  0  0  0  0  0  0  0
    0.9115    2.0256    0.0000 N   0  0  0  0  0  0  0  0  0  0  0  0
    0.9115    3.0384    0.0000 O   0  0  0  0  0  0  0  0  0  0  0  0
    0.0000    1.5698    0.0000 O   0  0  0  0  0  0  0  0  0  0  0  0
  2  1  2  0  0  0  0 
  1  3  1  0  0  0  0 
  1  4  1  0  0  0  0 
  5  2  1  0  0  0  0 
  3  6  2  0  0  0  0 
  7  5  2  0  0  0  0 
  5  8  1  0  0  0  0 
  6  7  1  0  0  0  0 
  7  9  1  0  0  0  0 
  9 10  2  0  0  0  0 
  9 11  2  0  0  0  0 
M  END
> <Name>
2-Pyridinol,4-methyl-5-nitro- (8CI)

> <Source>
NIST2DMolFile

> <Tox>
2.830

> <CAS>
21901-41-7

$$$$

  CDK

  6  6  0  0  0  0  0  0  0  0999 V2000
    0.0000    0.8077    0.0000 Br  0  0  0  0  0  0  0  0  0  0  0  0
    0.9592    0.8077    0.0000 C   0  0  0  0  0  0  0  0  0  0  0  0
    1.5650    0.0000    0.0000 C   0  0  0  0  0  0  0  0  0  0  0  0
    1.5650    1.6155    0.0000 C   0  0  0  0  0  0  0  0  0  0  0  0
    2.5242    0.3029    0.0000 C   0  0  0  0  0  0  0  0  0  0  0  0
    2.5242    1.3126    0.0000 O   0  0  0  0  0  0  0  0  0  0  0  0
  1  2  1  0  0  0  0 
  2  3  1  0  0  0  0 
  4  2  2  0  0  0  0 
  3  5  2  0  0  0  0 
  6  4  1  0  0  0  0 
  5  6  1  0  0  0  0 
M  END
> <Name>
3-bromofuran

> <Source>
NIST2DMolFile

> <Tox>
2.520

> <CAS>
22037-28-1

$$$$

  CDK

 10  9  0  0  0  0  0  0  0  0999 V2000
    0.5950    4.3714    1.3304 O   0  0  0  0  0  0  0  0  0  0  0  0
    1.8840    4.8839    1.0740 C   0  0  0  0  0  0  0  0  0  0  0  0
    2.8597    4.1241    1.9133 C   0  0  0  0  0  0  0  0  0  0  0  0
    4.1432    4.4790    1.9845 C   0  0  0  0  0  0  0  0  0  0  0  0
    5.1405    3.7455    2.8091 C   0  0  0  0  0  0  0  0  0  0  0  0
    6.2761    3.2179    1.9435 C   0  0  0  0  0  0  0  0  0  0  0  0
    7.3399    2.5355    2.7883 C   0  0  0  0  0  0  0  0  0  0  0  0
    8.4570    1.9758    1.9228 C   0  0  0  0  0  0  0  0  0  0  0  0
    9.5151    1.2776    2.7620 C   0  0  0  0  0  0  0  0  0  0  0  0
   10.6277    0.7266    1.8989 C   0  0  0  0  0  0  0  0  0  0  0  0
  1  2  1  0  0  0  0 
  2  3  1  0  0  0  0 
  3  4  2  0  0  0  0 
  4  5  1  0  0  0  0 
  5  6  1  0  0  0  0 
  6  7  1  0  0  0  0 
  7  8  1  0  0  0  0 
  9  8  1  0  0  0  0 
 10  9  1  0  0  0  0 
M  END
> <Name>
2-Nonen-1-ol

> <Source>
NIST3DMolFile

> <Tox>
3.770

> <CAS>
22104-79-6

$$$$

  CDK

 11 10  0  0  0  0  0  0  0  0999 V2000
    0.0000    0.4594    0.0000 O   0  0  0  0  0  0  0  0  0  0  0  0
    0.9188    0.0000    0.0000 C   0  0  0  0  0  0  0  0  0  0  0  0
    1.7865    0.4594    0.0000 C   0  0  0  0  0  0  0  0  0  0  0  0
    2.7053    0.0000    0.0000 C   0  0  0  0  0  0  0  0  0  0  0  0
    3.5731    0.4594    0.0000 C   0  0  0  0  0  0  0  0  0  0  0  0
    4.4408    0.0000    0.0000 C   0  0  0  0  0  0  0  0  0  0  0  0
    5.3085    0.4594    0.0000 C   0  0  0  0  0  0  0  0  0  0  0  0
    6.1763    0.0000    0.0000 C   0  0  0  0  0  0  0  0  0  0  0  0
    7.0951    0.4594    0.0000 C   0  0  0  0  0  0  0  0  0  0  0  0
    7.9628    0.0000    0.0000 C   0  0  0  0  0  0  0  0  0  0  0  0
    8.8816    0.4594    0.0000 C   0  0  0  0  0  0  0  0  0  0  0  0
  1  2  1  0  0  0  0 
  3  2  1  6  0  0  0 
  3  4  2  0  0  0  0 
  4  5  1  0  0  0  0 
  5  6  1  0  0  0  0 
  6  7  1  0  0  0  0 
  7  8  1  0  0  0  0 
  9  8  1  0  0  0  0 
 10  9  1  0  0  0  0 
 11 10  1  0  0  0  0 
M  END
> <Name>
2-Decen-1-ol

> <Source>
NIST2DMolFile

> <Tox>
4.128

> <CAS>
22104-80-9

$$$$

  CDK

 13 12  0  0  0  0  0  0  0  0999 V2000
   10.5194    0.5009    0.0000 O   0  0  0  0  0  0  0  0  0  0  0  0
    9.6678    0.0000    0.0000 C   0  0  0  0  0  0  0  0  0  0  0  0
    8.8162    0.5009    0.0000 C   0  0  0  0  0  0  0  0  0  0  0  0
    7.8144    0.5009    0.0000 C   0  0  0  0  0  0  0  0  0  0  0  0
    6.9127    0.0000    0.0000 C   0  0  0  0  0  0  0  0  0  0  0  0
    6.0612    0.5009    0.0000 C   0  0  0  0  0  0  0  0  0  0  0  0
    5.2096    0.0000    0.0000 C   0  0  0  0  0  0  0  0  0  0  0  0
    4.3079    0.5009    0.0000 C   0  0  0  0  0  0  0  0  0  0  0  0
    3.4564    0.0000    0.0000 C   0  0  0  0  0  0  0  0  0  0  0  0
    2.6048    0.5009    0.0000 C   0  0  0  0  0  0  0  0  0  0  0  0
    1.7031    0.0000    0.0000 C   0  0  0  0  0  0  0  0  0  0  0  0
    0.8516    0.5009    0.0000 C   0  0  0  0  0  0  0  0  0  0  0  0
    0.0000    0.0000    0.0000 C   0  0  0  0  0  0  0  0  0  0  0  0
  1  2  1  0  0  0  0 
  2  3  1  0  0  0  0 
  4  3  2  0  0  0  0 
  5  4  1  0  0  0  0 
  6  5  1  0  0  0  0 
  7  6  1  0  0  0  0 
  8  7  1  0  0  0  0 
  9  8  1  0  0  0  0 
 10  9  1  0  0  0  0 
 11 10  1  0  0  0  0 
 12 11  1  0  0  0  0 
 12 13  1  0  0  0  0 
M  END
> <Name>
2-Dodecen-1-ol

> <Source>
NIST2DMolFile

> <Tox>
5.092

> <CAS>
22104-81-0

$$$$

  CDK

 11 11  0  0  0  0  0  0  0  0999 V2000
   -0.0167    1.3781    0.0096 C   0  0  0  0  0  0  0  0  0  0  0  0
    0.0021   -0.0041    0.0020 C   0  0  0  0  0  0  0  0  0  0  0  0
    1.1709    2.0855    0.0021 C   0  0  0  0  0  0  0  0  0  0  0  0
   -1.3319    2.1138    0.0199 C   0  0  0  0  0  0  0  0  0  0  0  0
    1.2084   -0.6789   -0.0132 C   0  0  0  0  0  0  0  0  0  0  0  0
    2.3773    1.4107   -0.0145 C   0  0  0  0  0  0  0  0  0  0  0  0
   -1.2051    3.3053    0.7985 O   0  0  0  0  0  0  0  0  0  0  0  0
   -1.7224    2.4803   -1.4133 C   0  0  0  0  0  0  0  0  0  0  0  0
    2.3960    0.0285   -0.0212 C   0  0  0  0  0  0  0  0  0  0  0  0
   -3.1143    3.1156   -1.4161 C   0  0  0  0  0  0  0  0  0  0  0  0
   -3.5048    3.4821   -2.8493 C   0  0  0  0  0  0  0  0  0  0  0  0
  1  2  1  0  0  0  0 
  1  3  2  0  0  0  0 
  1  4  1  0  0  0  0 
  2  5  2  0  0  0  0 
  6  3  1  0  0  0  0 
  4  7  1  0  0  0  0 
  4  8  1  0  0  0  0 
  5  9  1  0  0  0  0 
  9  6  2  0  0  0  0 
  8 10  1  0  0  0  0 
 10 11  1  0  0  0  0 
M  END
> <Name>
 Benzyl alcohol, a-propyl-, (S)-(-)- (8CI)

> <Source>
Chemidplus3DMolFile

> <Tox>
2.910

> <CAS>
22135-49-5

$$$$

  CDK

  9  8  0  0  0  0  0  0  0  0999 V2000
   -2.5448   -6.7573    1.4909 Cl  0  0  0  0  0  0  0  0  0  0  0  0
   -3.0102   -5.8816    0.0154 C   0  0  0  0  0  0  0  0  0  0  0  0
   -2.0036   -4.7951   -0.3517 C   0  0  0  0  0  0  0  0  0  0  0  0
   -1.7738   -3.7113    0.7082 C   0  0  0  0  0  0  0  0  0  0  0  0
   -0.7935   -2.6226    0.2644 C   0  0  0  0  0  0  0  0  0  0  0  0
   -0.5997   -1.5719    1.3642 C   0  0  0  0  0  0  0  0  0  0  0  0
    0.3483   -0.4455    0.9495 C   0  0  0  0  0  0  0  0  0  0  0  0
    0.4721    0.5877    1.9867 C   0  0  0  0  0  0  0  0  0  0  0  0
    0.5702    1.4046    2.8049 N   0  0  0  0  0  0  0  0  0  0  0  0
  1  2  1  0  0  0  0 
  3  2  1  0  0  0  0 
  4  3  1  0  0  0  0 
  5  4  1  0  0  0  0 
  5  6  1  0  0  0  0 
  6  7  1  0  0  0  0 
  7  8  1  0  0  0  0 
  9  8  3  0  0  0  0 
M  END
> <Name>
7-Chloroheptane-1-nitrile

> <Source>
Chemidplus3DMolFile

> <Tox>
3.287

> <CAS>
22819-91-6

$$$$

  CDK

 11 11  0  0  0  0  0  0  0  0999 V2000
    2.4726   -0.3696   -0.0284 N   0  0  0  0  0  0  0  0  0  0  0  0
    3.0095   -1.3220    0.5083 O   0  0  0  0  0  0  0  0  0  0  0  0
    3.1494    0.4818   -0.5767 O   0  0  0  0  0  0  0  0  0  0  0  0
    0.9974   -0.2499   -0.0197 C   0  0  0  0  0  0  0  0  0  0  0  0
    0.3949    0.9939    0.0933 C   0  0  0  0  0  0  0  0  0  0  0  0
    0.2038   -1.3758   -0.1297 C   0  0  0  0  0  0  0  0  0  0  0  0
    1.2259    2.2457    0.2091 C   0  0  0  0  0  0  0  0  0  0  0  0
   -0.9897    1.0587    0.0966 C   0  0  0  0  0  0  0  0  0  0  0  0
   -1.1113   -1.2777   -0.1237 N   0  0  0  0  0  0  0  0  0  0  0  0
   -1.7194   -0.1117   -0.0120 C   0  0  0  0  0  0  0  0  0  0  0  0
   -3.4541   -0.0451   -0.0086 Cl  0  0  0  0  0  0  0  0  0  0  0  0
  1  2  1  0  0  0  0 
  1  3  2  0  0  0  0 
  1  4  1  0  0  0  0 
  4  5  2  0  0  0  0 
  4  6  1  0  0  0  0 
  5  7  1  0  0  0  0 
  5  8  1  0  0  0  0 
  6  9  2  0  0  0  0 
  8 10  2  0  0  0  0 
  9 10  1  0  0  0  0 
 10 11  1  0  0  0  0 
M  CHG  1   1   1
M  CHG  1   2  -1
M  END
> <Name>
2-chloro-4-methyl-5-nitro-pyridine

> <Source>
NIH3DMolFile

> <Tox>
3.420

> <CAS>
23056-33-9

$$$$

  CDK

 11 11  0  0  0  0  0  0  0  0999 V2000
   -0.6635    1.4605   -0.0015 N   0  0  0  0  0  0  0  0  0  0  0  0
   -1.0254    1.9510   -1.0559 O   0  0  0  0  0  0  0  0  0  0  0  0
   -1.0342    1.9430    1.0537 O   0  0  0  0  0  0  0  0  0  0  0  0
    0.2218    0.2744   -0.0023 C   0  0  0  0  0  0  0  0  0  0  0  0
    1.5990    0.4268    0.0011 C   0  0  0  0  0  0  0  0  0  0  0  0
   -0.3153   -1.0010   -0.0008 C   0  0  0  0  0  0  0  0  0  0  0  0
    2.2232    1.7985    0.0058 C   0  0  0  0  0  0  0  0  0  0  0  0
    2.3897   -0.7129    0.0007 C   0  0  0  0  0  0  0  0  0  0  0  0
   -2.0391   -1.2065    0.0010 Cl  0  0  0  0  0  0  0  0  0  0  0  0
    0.4683   -2.0626   -0.0011 N   0  0  0  0  0  0  0  0  0  0  0  0
    1.7829   -1.9540   -0.0032 C   0  0  0  0  0  0  0  0  0  0  0  0
  1  2  1  0  0  0  0 
  1  3  2  0  0  0  0 
  1  4  1  0  0  0  0 
  4  5  2  0  0  0  0 
  4  6  1  0  0  0  0 
  5  7  1  0  0  0  0 
  5  8  1  0  0  0  0 
  6  9  1  0  0  0  0 
  6 10  2  0  0  0  0 
  8 11  2  0  0  0  0 
 10 11  1  0  0  0  0 
M  CHG  1   1   1
M  CHG  1   2  -1
M  END
> <Name>
4-Picoline,2-chloro-3-nitro- (6CI,8CI)

> <Source>
NIH3DMolFile

> <Tox>
3.290

> <CAS>
23056-39-5

$$$$

  CDK

 10  9  0  0  0  0  0  0  0  0999 V2000
    0.0000    0.0000    0.0000 C   0  0  0  0  0  0  0  0  0  0  0  0
   -0.0200   -0.8600    1.2600 C   0  0  0  0  0  0  0  0  0  0  0  0
    0.0000   -0.8200   -1.2800 C   0  0  0  0  0  0  0  0  0  0  0  0
    0.4400   -0.1000    2.5000 C   0  0  0  0  0  0  0  0  0  0  0  0
    0.3000    0.0200   -2.5200 C   0  0  0  0  0  0  0  0  0  0  0  0
    0.8400   -1.0400    3.6400 C   0  0  0  0  0  0  0  0  0  0  0  0
    0.4600   -0.8200   -3.8000 C   0  0  0  0  0  0  0  0  0  0  0  0
    1.8600   -0.4200    4.5800 C   0  0  0  0  0  0  0  0  0  0  0  0
    0.9200    0.0000   -4.8200 O   0  0  0  0  0  0  0  0  0  0  0  0
    3.4400   -0.3000    3.7600 Cl  0  0  0  0  0  0  0  0  0  0  0  0
  1  2  1  0  0  0  0 
  1  3  1  0  0  0  0 
  2  4  1  0  0  0  0 
  5  3  1  0  0  0  0 
  4  6  1  0  0  0  0 
  7  5  1  0  0  0  0 
  6  8  1  0  0  0  0 
  9  7  1  0  0  0  0 
  8 10  1  0  0  0  0 
M  END
> <Name>
1-Octanol, 8-chloro-

> <Source>
NIH3DMolFile

> <Tox>
3.488

> <CAS>
23144-52-7

$$$$

  CDK

  7  6  0  0  0  0  0  0  0  0999 V2000
    1.3874    0.8266    0.0001 O   0  0  0  0  0  0  0  0  0  0  0  0
    2.8117    0.6843   -0.0002 C   0  0  0  0  0  0  0  0  0  0  0  0
    0.6854   -0.3378    0.0002 C   0  0  0  0  0  0  0  0  0  0  0  0
    1.1356   -1.4737   -0.0001 O   0  0  0  0  0  0  0  0  0  0  0  0
   -0.7354   -0.1061    0.0000 C   0  0  0  0  0  0  0  0  0  0  0  0
   -1.9207    0.0861    0.0000 C   0  0  0  0  0  0  0  0  0  0  0  0
   -3.3640    0.3206   -0.0001 C   0  0  0  0  0  0  0  0  0  0  0  0
  1  2  1  0  0  0  0 
  1  3  1  0  0  0  0 
  4  3  2  0  0  0  0 
  3  5  1  0  0  0  0 
  5  6  3  0  0  0  0 
  7  6  1  0  0  0  0 
M  END
> <Name>
methyl but-2-ynoate

> <Source>
Chemidplus3DMolFile

> <Tox>
3.400

> <CAS>
23326-27-4

$$$$

  CDK

 13 13  0  0  0  0  0  0  0  0999 V2000
    2.9564    0.0000    0.0000 C   0  0  0  0  0  0  0  0  0  0  0  0
    1.9542    0.0000    0.0000 C   0  0  0  0  0  0  0  0  0  0  0  0
    3.4575    0.8519    0.0000 C   0  0  0  0  0  0  0  0  0  0  0  0
    1.4532    0.8519    0.0000 C   0  0  0  0  0  0  0  0  0  0  0  0
    2.9564    1.7538    0.0000 C   0  0  0  0  0  0  0  0  0  0  0  0
    4.4096    0.8519    0.0000 O   0  0  0  0  0  0  0  0  0  0  0  0
    1.9542    1.7538    0.0000 C   0  0  0  0  0  0  0  0  0  0  0  0
    0.4510    0.8519    0.0000 C   0  0  0  0  0  0  0  0  0  0  0  0
    4.9107    1.7037    0.0000 C   0  0  0  0  0  0  0  0  0  0  0  0
    0.0000    1.7538    0.0000 O   0  0  0  0  0  0  0  0  0  0  0  0
    0.0000    0.0000    0.0000 O   0  0  0  0  0  0  0  0  0  0  0  0
    5.9630    1.7037    0.0000 C   0  0  0  0  0  0  0  0  0  0  0  0
    0.5011    2.6057    0.0000 C   0  0  0  0  0  0  0  0  0  0  0  0
  2  1  2  0  0  0  0 
  1  3  1  0  0  0  0 
  4  2  1  0  0  0  0 
  3  5  2  0  0  0  0 
  3  6  1  0  0  0  0 
  7  4  2  0  0  0  0 
  4  8  1  0  0  0  0 
  5  7  1  0  0  0  0 
  6  9  1  0  0  0  0 
  8 10  1  0  0  0  0 
  8 11  2  0  0  0  0 
 12  9  1  0  0  0  0 
 13 10  1  0  0  0  0 
M  END
> <Name>
Benzoic acid, 4-ethoxy-, methyl ester

> <Source>
NIST2DMolFile

> <Tox>
3.580

> <CAS>
23676-08-6

$$$$

  CDK

 11 11  0  0  0  0  0  0  0  0999 V2000
    2.6797    2.0098    0.0000 C   0  0  0  0  0  0  0  0  0  0  0  0
    3.4527    1.5975    0.0000 N   0  0  0  0  0  0  0  0  0  0  0  0
    1.8037    1.5975    0.0000 C   0  0  0  0  0  0  0  0  0  0  0  0
    2.6797    3.0404    0.0000 C   0  0  0  0  0  0  0  0  0  0  0  0
    4.5348    1.0306    0.0000 C   0  0  0  0  0  0  0  0  0  0  0  0
    1.8037    0.6184    0.0000 C   0  0  0  0  0  0  0  0  0  0  0  0
    0.9276    2.0613    0.0000 C   0  0  0  0  0  0  0  0  0  0  0  0
    5.3079    0.6184    0.0000 S   0  0  0  0  0  0  0  0  0  0  0  0
    0.9276    0.0000    0.0000 C   0  0  0  0  0  0  0  0  0  0  0  0
    0.0000    1.5975    0.0000 C   0  0  0  0  0  0  0  0  0  0  0  0
    0.0000    0.6184    0.0000 C   0  0  0  0  0  0  0  0  0  0  0  0
  1  2  1  6  0  0  0 
  1  3  1  0  0  0  0 
  1  4  1  0  0  0  0 
  2  5  2  0  0  0  0 
  3  6  2  0  0  0  0 
  7  3  1  0  0  0  0 
  5  8  2  0  0  0  0 
  6  9  1  0  0  0  0 
 10  7  2  0  0  0  0 
  9 11  2  0  0  0  0 
 11 10  1  0  0  0  0 
M  END
> <Name>
L-alpha-Methylbenzyl isothiocyanate

> <Source>
NIST2DMolFile

> <Tox>
5.699

> <CAS>
24277-43-8

$$$$

  CDK

 13 13  0  0  0  0  0  0  0  0999 V2000
    3.4548   -3.9869    0.0000 N   0  0  0  0  0  0  0  0  0  0  0  0
    3.4548   -2.6602    0.0000 C   0  0  0  0  0  0  0  0  0  0  0  0
    2.3009   -1.9900    0.0000 C   0  0  0  0  0  0  0  0  0  0  0  0
    4.6088   -1.9900    0.0000 C   0  0  0  0  0  0  0  0  0  0  0  0
    1.1539   -2.6602    0.0000 C   0  0  0  0  0  0  0  0  0  0  0  0
    2.3009   -0.6633    0.0000 C   0  0  0  0  0  0  0  0  0  0  0  0
    4.6088   -0.6633    0.0000 C   0  0  0  0  0  0  0  0  0  0  0  0
    5.7558   -2.6602    0.0000 C   0  0  0  0  0  0  0  0  0  0  0  0
    0.0000   -1.9900    0.0000 C   0  0  0  0  0  0  0  0  0  0  0  0
    1.1539   -3.9869    0.0000 C   0  0  0  0  0  0  0  0  0  0  0  0
    3.4548   -0.0000    0.0000 C   0  0  0  0  0  0  0  0  0  0  0  0
    6.9097   -1.9900    0.0000 C   0  0  0  0  0  0  0  0  0  0  0  0
    5.7558   -3.9869    0.0000 C   0  0  0  0  0  0  0  0  0  0  0  0
  1  2  1  0  0  0  0 
  2  3  2  0  0  0  0 
  2  4  1  0  0  0  0 
  3  5  1  0  0  0  0 
  3  6  1  0  0  0  0 
  7  4  2  0  0  0  0 
  4  8  1  0  0  0  0 
  5  9  1  0  0  0  0 
  5 10  1  0  0  0  0 
  6 11  2  0  0  0  0 
 11  7  1  0  0  0  0 
  8 12  1  0  0  0  0 
  8 13  1  0  0  0  0 
M  END
> <Name>
Benzenamine, 2,6-bis(1-methylethyl)-

> <Source>
DSSTox2DMolFile

> <Tox>
3.760

> <CAS>
24544-04-5

$$$$

  CDK

  8  7  0  0  0  0  0  0  0  0999 V2000
    1.7759    0.0000    0.0000 C   0  0  0  0  0  0  0  0  0  0  0  0
    1.7759    1.0148    0.0000 C   0  0  0  0  0  0  0  0  0  0  0  0
    0.9133    1.4715    0.0000 C   0  0  0  0  0  0  0  0  0  0  0  0
    2.6385    1.4715    0.0000 C   0  0  0  0  0  0  0  0  0  0  0  0
    0.0000    1.0148    0.0000 C   0  0  0  0  0  0  0  0  0  0  0  0
    3.5011    1.0148    0.0000 C   0  0  0  0  0  0  0  0  0  0  0  0
    2.6385    2.4863    0.0000 N   0  0  0  0  0  0  0  0  0  0  0  0
    4.4145    1.4715    0.0000 O   0  0  0  0  0  0  0  0  0  0  0  0
  1  2  1  0  0  0  0 
  2  3  1  0  0  0  0 
  2  4  1  0  0  0  0 
  5  3  1  0  0  0  0 
  4  6  1  0  0  0  0 
  4  7  1  0  0  0  0 
  6  8  1  0  0  0  0 
M  END
> <Name>
2-Amino-3-methylpentan-1-ol

> <Source>
NIST2DMolFile

> <Tox>
2.341

> <CAS>
24629-25-2

$$$$

  CDK

 10 10  0  0  0  0  0  0  0  0999 V2000
    4.1295    1.8248    0.0841 C   0  0  0  0  0  0  0  0  0  0  0  0
    2.7153    1.8818    0.1202 C   0  0  0  0  0  0  0  0  0  0  0  0
    4.8854    2.9969    0.0415 C   0  0  0  0  0  0  0  0  0  0  0  0
    4.6969    0.5713    0.0942 O   0  0  0  0  0  0  0  0  0  0  0  0
    2.0749    3.1349    0.1128 C   0  0  0  0  0  0  0  0  0  0  0  0
    1.9232    0.7703    0.1615 O   0  0  0  0  0  0  0  0  0  0  0  0
    4.2392    4.2286    0.0346 C   0  0  0  0  0  0  0  0  0  0  0  0
    2.8538    4.2948    0.0698 C   0  0  0  0  0  0  0  0  0  0  0  0
    0.5917    3.2311    0.1511 C   0  0  0  0  0  0  0  0  0  0  0  0
    0.0000    4.2884    0.1294 O   0  0  0  0  0  0  0  0  0  0  0  0
  1  2  2  0  0  0  0 
  3  1  1  0  0  0  0 
  1  4  1  0  0  0  0 
  2  5  1  0  0  0  0 
  2  6  1  0  0  0  0 
  7  3  2  0  0  0  0 
  5  8  2  0  0  0  0 
  5  9  1  0  0  0  0 
  8  7  1  0  0  0  0 
  9 10  2  0  0  0  0 
M  END
> <Name>
2,3-Dihydroxybenzaldehyde

> <Source>
NIST3DMolFile

> <Tox>
3.111

> <CAS>
24677-78-9

$$$$

  CDK

  9  8  0  0  0  0  0  0  0  0999 V2000
    0.0000   -0.2062    0.0000 C   0  0  0  0  0  0  0  0  0  0  0  0
   -0.7145   -0.6188    0.0000 C   0  0  0  0  0  0  0  0  0  0  0  0
    0.0000    0.6188    0.0000 O   0  0  0  0  0  0  0  0  0  0  0  0
    0.7145   -0.6188    0.0000 O   0  0  0  0  0  0  0  0  0  0  0  0
   -1.4289   -0.2062    0.0000 C   0  0  0  0  0  0  0  0  0  0  0  0
    1.4289   -0.2062    0.0000 C   0  0  0  0  0  0  0  0  0  0  0  0
   -2.1434   -0.6188    0.0000 C   0  0  0  0  0  0  0  0  0  0  0  0
   -1.4289    0.6188    0.0000 O   0  0  0  0  0  0  0  0  0  0  0  0
    2.1434   -0.6188    0.0000 C   0  0  0  0  0  0  0  0  0  0  0  0
  1  2  1  0  0  0  0 
  1  3  2  0  0  0  0 
  1  4  1  0  0  0  0 
  2  5  1  0  0  0  0 
  4  6  1  0  0  0  0 
  5  7  1  0  0  0  0 
  5  8  1  0  0  0  0 
  6  9  1  0  0  0  0 
M  END
> <Name>
Butyric acid, 3-hydroxy-, ethyl ester,(-)- (8CI)

> <Source>
Name2DMolFile

> <Tox>
1.470

> <CAS>
24915-95-5

$$$$

  CDK

 10 10  0  0  0  0  0  0  0  0999 V2000
    3.0653    3.4673    0.0000 C   0  0  0  0  0  0  0  0  0  0  0  0
    3.5678    2.5628    0.0000 C   0  0  0  0  0  0  0  0  0  0  0  0
    2.0603    3.4673    0.0000 C   0  0  0  0  0  0  0  0  0  0  0  0
    3.0653    1.7085    0.0000 C   0  0  0  0  0  0  0  0  0  0  0  0
    1.5578    2.5628    0.0000 C   0  0  0  0  0  0  0  0  0  0  0  0
    2.0603    1.7085    0.0000 C   0  0  0  0  0  0  0  0  0  0  0  0
    3.5678    0.8543    0.0000 C   0  0  0  0  0  0  0  0  0  0  0  0
    0.5528    2.5628    0.0000 C   0  0  0  0  0  0  0  0  0  0  0  0
    4.0200    0.0000    0.0000 N   0  0  0  0  0  0  0  0  0  0  0  0
    0.0000    1.7588    0.0000 O   0  0  0  0  0  0  0  0  0  0  0  0
  2  1  2  0  0  0  0 
  1  3  1  0  0  0  0 
  4  2  1  0  0  0  0 
  3  5  2  0  0  0  0 
  6  4  2  0  0  0  0 
  4  7  1  0  0  0  0 
  5  6  1  0  0  0  0 
  5  8  1  0  0  0  0 
  7  9  3  0  0  0  0 
  8 10  2  0  0  0  0 
M  END
> <Name>
m-Formylbenzonitrile

> <Source>
NIST2DMolFile

> <Tox>
2.980

> <CAS>
24964-64-5

$$$$

  CDK

 11 10  0  0  0  0  0  0  0  0999 V2000
    2.6097    0.0000    0.0000 C   0  0  0  0  0  0  0  0  0  0  0  0
    3.5130    0.5019    0.0000 C   0  0  0  0  0  0  0  0  0  0  0  0
    1.7565    0.5019    0.0000 C   0  0  0  0  0  0  0  0  0  0  0  0
    4.3662    0.0000    0.0000 C   0  0  0  0  0  0  0  0  0  0  0  0
    0.9034    0.0000    0.0000 C   0  0  0  0  0  0  0  0  0  0  0  0
    5.2194    0.5019    0.0000 C   0  0  0  0  0  0  0  0  0  0  0  0
    0.0000    0.5019    0.0000 Br  0  0  0  0  0  0  0  0  0  0  0  0
    6.1227    0.0000    0.0000 O   0  0  0  0  0  0  0  0  0  0  0  0
    5.2194    1.5056    0.0000 O   0  0  0  0  0  0  0  0  0  0  0  0
    6.9257    0.5019    0.0000 C   0  0  0  0  0  0  0  0  0  0  0  0
    7.7789    0.0000    0.0000 C   0  0  0  0  0  0  0  0  0  0  0  0
  1  2  1  0  0  0  0 
  1  3  1  0  0  0  0 
  2  4  1  0  0  0  0 
  3  5  1  0  0  0  0 
  4  6  1  0  0  0  0 
  5  7  1  0  0  0  0 
  6  8  1  0  0  0  0 
  6  9  2  0  0  0  0 
  8 10  1  0  0  0  0 
 10 11  1  0  0  0  0 
M  END
> <Name>
Hexanoic acid, 6-bromo-, ethyl ester

> <Source>
NIST2DMolFile

> <Tox>
3.594

> <CAS>
25542-62-5

$$$$

  CDK

  6  5  0  0  0  0  0  0  0  0999 V2000
    2.1533    1.7999    2.2258 C   0  0  0  0  0  0  0  0  0  0  0  0
    0.8886    1.0561    1.8623 C   0  0  0  0  0  0  0  0  0  0  0  0
    3.4103    1.0861    1.7047 C   0  0  0  0  0  0  0  0  0  0  0  0
    4.6948    1.6810    2.3282 C   0  0  0  0  0  0  0  0  0  0  0  0
    3.4812    1.0547    0.2995 O   0  0  0  0  0  0  0  0  0  0  0  0
    4.8185    3.0265    1.9277 O   0  0  0  0  0  0  0  0  0  0  0  0
  1  2  1  0  0  0  0 
  1  3  1  0  0  0  0 
  3  4  1  0  0  0  0 
  3  5  1  0  0  0  0 
  6  4  1  0  0  0  0 
M  END
> <Name>
(+/-)-1,2-butanediol

> <Source>
NIST3DMolFile

> <Tox>
0.952

> <CAS>
26171-83-5

$$$$

  CDK

 14 14  0  0  0  0  0  0  0  0999 V2000
    3.3281   -0.8583    0.2872 O   0  0  0  0  0  0  0  0  0  0  0  0
    2.7343    0.3156   -0.1000 C   0  0  0  0  0  0  0  0  0  0  0  0
    4.7602   -0.8725    0.2955 C   0  0  0  0  0  0  0  0  0  0  0  0
    3.3674    1.3202   -0.4285 O   0  0  0  0  0  0  0  0  0  0  0  0
    1.2843    0.2073   -0.0672 C   0  0  0  0  0  0  0  0  0  0  0  0
    0.5066    1.3345    0.1971 C   0  0  0  0  0  0  0  0  0  0  0  0
    0.6715   -1.0239   -0.3005 C   0  0  0  0  0  0  0  0  0  0  0  0
   -0.8840    1.2306    0.2283 C   0  0  0  0  0  0  0  0  0  0  0  0
   -0.7191   -1.1279   -0.2694 C   0  0  0  0  0  0  0  0  0  0  0  0
   -1.4510    0.0029   -0.0061 C   0  0  0  0  0  0  0  0  0  0  0  0
   -2.9840   -0.1116    0.0292 C   0  0  0  0  0  0  0  0  0  0  0  0
   -3.5990    0.8165   -1.0406 C   0  0  0  0  0  0  0  0  0  0  0  0
   -3.5044    0.3046    1.4221 C   0  0  0  0  0  0  0  0  0  0  0  0
   -3.5108   -1.5381   -0.2470 C   0  0  0  0  0  0  0  0  0  0  0  0
  1  2  1  0  0  0  0 
  1  3  1  0  0  0  0 
  4  2  2  0  0  0  0 
  5  2  1  0  0  0  0 
  6  5  2  0  0  0  0 
  7  5  1  0  0  0  0 
  8  6  1  0  0  0  0 
  9  7  2  0  0  0  0 
 10  8  2  0  0  0  0 
 10  9  1  0  0  0  0 
 11 10  1  0  0  0  0 
 11 12  1  0  0  0  0 
 11 13  1  0  0  0  0 
 11 14  1  0  0  0  0 
M  END
> <Name>
methyl 4-tert-butylbenzoate

> <Source>
Chemidplus3DMolFile

> <Tox>
3.920

> <CAS>
26537-19-9

$$$$

  CDK

  7  6  0  0  0  0  0  0  0  0999 V2000
    2.2650    0.0000    0.0000 C   0  0  0  0  0  0  0  0  0  0  0  0
    1.7616    0.8557    0.0000 C   0  0  0  0  0  0  0  0  0  0  0  0
    1.2583    0.0000    0.0000 C   0  0  0  0  0  0  0  0  0  0  0  0
    2.6173    1.3590    0.0000 C   0  0  0  0  0  0  0  0  0  0  0  0
    0.8557    1.3590    0.0000 C   0  0  0  0  0  0  0  0  0  0  0  0
    3.4730    0.8557    0.0000 O   0  0  0  0  0  0  0  0  0  0  0  0
    0.0000    0.8557    0.0000 N   0  0  0  0  0  0  0  0  0  0  0  0
  1  2  1  0  0  0  0 
  2  3  1  0  0  0  0 
  2  4  1  0  0  0  0 
  2  5  1  0  0  0  0 
  6  4  1  0  0  0  0 
  5  7  1  0  0  0  0 
M  END
> <Name>
1-Propanol, 3-amino-2,2-dimethyl-

> <Source>
NIST2DMolFile

> <Tox>
2.075

> <CAS>
26734-09-8

$$$$

  CDK

  6  5  0  0  0  0  0  0  0  0999 V2000
    1.3766   -1.3385   -0.6097 Cl  0  0  0  0  0  0  0  0  0  0  0  0
    0.6625   -0.1061    0.4634 C   0  0  0  0  0  0  0  0  0  0  0  0
    1.4780    1.1745    0.3889 C   0  0  0  0  0  0  0  0  0  0  0  0
   -0.7669    0.1002    0.0011 C   0  0  0  0  0  0  0  0  0  0  0  0
   -1.0988    0.9669   -0.8040 O   0  0  0  0  0  0  0  0  0  0  0  0
   -1.6516   -0.7969    0.5601 N   0  0  0  0  0  0  0  0  0  0  0  0
  1  2  1  0  0  0  0 
  2  3  1  0  0  0  0 
  2  4  1  0  0  0  0 
  5  4  2  0  0  0  0 
  6  4  1  0  0  0  0 
M  END
> <Name>
2-chloropropanamide

> <Source>
Chemidplus3DMolFile

> <Tox>
1.558

> <CAS>
27816-36-0

$$$$

  CDK

 14 14  0  0  0  0  0  0  0  0999 V2000
    2.5876    1.5728    0.0000 C   0  0  0  0  0  0  0  0  0  0  0  0
    2.5876    2.4861    0.0000 C   0  0  0  0  0  0  0  0  0  0  0  0
    1.7758    1.0655    0.0000 C   0  0  0  0  0  0  0  0  0  0  0  0
    3.5008    1.0147    0.0000 N   0  0  0  0  0  0  0  0  0  0  0  0
    1.7758    2.9935    0.0000 C   0  0  0  0  0  0  0  0  0  0  0  0
    3.5008    3.0442    0.0000 N   0  0  0  0  0  0  0  0  0  0  0  0
    0.9133    1.5728    0.0000 C   0  0  0  0  0  0  0  0  0  0  0  0
    3.5008    0.0000    0.0000 O   0  0  0  0  0  0  0  0  0  0  0  0
    4.3633    1.5728    0.0000 O   0  0  0  0  0  0  0  0  0  0  0  0
    0.9133    2.4861    0.0000 C   0  0  0  0  0  0  0  0  0  0  0  0
    1.7758    4.0082    0.0000 Cl  0  0  0  0  0  0  0  0  0  0  0  0
    4.3633    2.5368    0.0000 O   0  0  0  0  0  0  0  0  0  0  0  0
    3.5008    4.0589    0.0000 O   0  0  0  0  0  0  0  0  0  0  0  0
    0.0000    1.0655    0.0000 Cl  0  0  0  0  0  0  0  0  0  0  0  0
  2  1  2  0  0  0  0 
  1  3  1  0  0  0  0 
  1  4  1  0  0  0  0 
  5  2  1  0  0  0  0 
  2  6  1  0  0  0  0 
  3  7  2  0  0  0  0 
  4  8  2  0  0  0  0 
  4  9  2  0  0  0  0 
 10  5  2  0  0  0  0 
  5 11  1  0  0  0  0 
  6 12  2  0  0  0  0 
  6 13  2  0  0  0  0 
  7 10  1  0  0  0  0 
  7 14  1  0  0  0  0 
M  END
> <Name>
Benzene, 1,5-dichloro-2,3-dinitro-

> <Source>
NIST2DMolFile

> <Tox>
5.420

> <CAS>
28689-08-9

$$$$

  CDK

 14 15  0  0  0  0  0  0  0  0999 V2000
    2.1594    5.1488    2.1011 O   0  0  0  0  0  0  0  0  0  0  0  0
    2.1154    3.8062    2.3711 C   0  0  0  0  0  0  0  0  0  0  0  0
    3.3174    3.0826    2.2299 C   0  0  0  0  0  0  0  0  0  0  0  0
    0.9304    3.1702    2.7646 C   0  0  0  0  0  0  0  0  0  0  0  0
    3.2899    1.7125    2.4846 C   0  0  0  0  0  0  0  0  0  0  0  0
    4.5681    3.7814    1.7966 C   0  0  0  0  0  0  0  0  0  0  0  0
    0.9406    1.8040    3.0151 C   0  0  0  0  0  0  0  0  0  0  0  0
    2.1157    1.0768    2.8742 C   0  0  0  0  0  0  0  0  0  0  0  0
    5.8208    2.9889    2.0006 C   0  0  0  0  0  0  0  0  0  0  0  0
    6.4914    3.0410    3.2241 C   0  0  0  0  0  0  0  0  0  0  0  0
    6.3427    2.2132    0.9639 C   0  0  0  0  0  0  0  0  0  0  0  0
    7.6684    2.3241    3.4072 C   0  0  0  0  0  0  0  0  0  0  0  0
    7.5207    1.4986    1.1504 C   0  0  0  0  0  0  0  0  0  0  0  0
    8.1850    1.5534    2.3709 C   0  0  0  0  0  0  0  0  0  0  0  0
  1  2  1  0  0  0  0 
  2  3  2  0  0  0  0 
  4  2  1  0  0  0  0 
  3  5  1  0  0  0  0 
  3  6  1  0  0  0  0 
  7  4  2  0  0  0  0 
  5  8  2  0  0  0  0 
  6  9  1  0  0  0  0 
  8  7  1  0  0  0  0 
  9 10  2  0  0  0  0 
 11  9  1  0  0  0  0 
 10 12  1  0  0  0  0 
 13 11  2  0  0  0  0 
 12 14  2  0  0  0  0 
 14 13  1  0  0  0  0 
M  END
> <Name>
2-benzylphenol

> <Source>
NIST3DMolFile

> <Tox>
4.310

> <CAS>
28994-41-4

$$$$

  CDK

 15 16  0  0  0  0  0  0  0  0999 V2000
    0.3572    0.8250    0.0000 C   0  0  0  0  0  0  0  0  0  0  0  0
    0.3572    0.0000    0.0000 C   0  0  0  0  0  0  0  0  0  0  0  0
   -0.3572    1.2375    0.0000 O   0  0  0  0  0  0  0  0  0  0  0  0
    1.0717    1.2375    0.0000 O   0  0  0  0  0  0  0  0  0  0  0  0
   -0.3572   -0.4125    0.0000 C   0  0  0  0  0  0  0  0  0  0  0  0
    1.0717   -0.4125    0.0000 C   0  0  0  0  0  0  0  0  0  0  0  0
   -1.0717    0.8250    0.0000 C   0  0  0  0  0  0  0  0  0  0  0  0
   -1.0717    0.0000    0.0000 C   0  0  0  0  0  0  0  0  0  0  0  0
    1.0717   -1.2375    0.0000 O   0  0  0  0  0  0  0  0  0  0  0  0
    1.7862    0.0000    0.0000 C   0  0  0  0  0  0  0  0  0  0  0  0
   -1.7862    1.2375    0.0000 C   0  0  0  0  0  0  0  0  0  0  0  0
   -1.7862   -0.4125    0.0000 C   0  0  0  0  0  0  0  0  0  0  0  0
    2.5006   -0.4125    0.0000 Br  0  0  0  0  0  0  0  0  0  0  0  0
   -2.5006    0.8250    0.0000 C   0  0  0  0  0  0  0  0  0  0  0  0
   -2.5006    0.0000    0.0000 C   0  0  0  0  0  0  0  0  0  0  0  0
  1  2  1  0  0  0  0 
  1  3  1  0  0  0  0 
  1  4  2  0  0  0  0 
  2  5  2  0  0  0  0 
  2  6  1  0  0  0  0 
  7  3  1  0  0  0  0 
  5  8  1  0  0  0  0 
  6  9  2  0  0  0  0 
  6 10  1  0  0  0  0 
  8  7  1  0  0  0  0 
  7 11  2  0  0  0  0 
  8 12  2  0  0  0  0 
 10 13  1  0  0  0  0 
 11 14  1  0  0  0  0 
 15 12  1  0  0  0  0 
 14 15  2  0  0  0  0 
M  END
> <Name>
2H-1-Benzopyran-2-one,3-(bromoacetyl)- (9CI)

> <Source>
Name2DMolFile

> <Tox>
5.658

> <CAS>
29310-88-1

$$$$

  CDK

 16 17  0  0  0  0  0  0  0  0999 V2000
    3.0330    2.5275    0.0000 C   0  0  0  0  0  0  0  0  0  0  0  0
    2.0725    2.5275    0.0000 C   0  0  0  0  0  0  0  0  0  0  0  0
    3.5385    1.7187    0.0000 C   0  0  0  0  0  0  0  0  0  0  0  0
    3.4879    3.3868    0.0000 C   0  0  0  0  0  0  0  0  0  0  0  0
    1.5670    1.7187    0.0000 C   0  0  0  0  0  0  0  0  0  0  0  0
    1.5670    3.3868    0.0000 C   0  0  0  0  0  0  0  0  0  0  0  0
    4.5495    1.7187    0.0000 C   0  0  0  0  0  0  0  0  0  0  0  0
    4.5495    3.3868    0.0000 C   0  0  0  0  0  0  0  0  0  0  0  0
    2.0725    0.8593    0.0000 C   0  0  0  0  0  0  0  0  0  0  0  0
    0.5055    1.7187    0.0000 C   0  0  0  0  0  0  0  0  0  0  0  0
    2.0220    4.2967    0.0000 C   0  0  0  0  0  0  0  0  0  0  0  0
    0.5560    3.3868    0.0000 O   0  0  0  0  0  0  0  0  0  0  0  0
    5.0550    2.5275    0.0000 C   0  0  0  0  0  0  0  0  0  0  0  0
    1.5670    0.0000    0.0000 C   0  0  0  0  0  0  0  0  0  0  0  0
    0.0000    0.8593    0.0000 C   0  0  0  0  0  0  0  0  0  0  0  0
    0.5055    0.0000    0.0000 C   0  0  0  0  0  0  0  0  0  0  0  0
  1  2  1  0  0  0  0 
  1  3  2  0  0  0  0 
  4  1  1  0  0  0  0 
  2  5  1  0  0  0  0 
  2  6  1  0  0  0  0 
  3  7  1  0  0  0  0 
  8  4  2  0  0  0  0 
  9  5  2  0  0  0  0 
  5 10  1  0  0  0  0 
  6 11  1  0  0  0  0 
  6 12  1  0  0  0  0 
  7 13  2  0  0  0  0 
 13  8  1  0  0  0  0 
 14  9  1  0  0  0  0 
 10 15  2  0  0  0  0 
 16 14  2  0  0  0  0 
 15 16  1  0  0  0  0 
M  END
> <Name>
alpha-Methyl-beta-phenylphenethyl alcohol

> <Source>
NIST2DMolFile

> <Tox>
3.750

> <CAS>
29338-49-6

$$$$

  CDK

 14 15  0  0  0  0  0  0  0  0999 V2000
   -5.3651    0.0006    0.0016 Br  0  0  0  0  0  0  0  0  0  0  0  0
   -3.4754   -0.0003   -0.0009 C   0  0  0  0  0  0  0  0  0  0  0  0
   -2.7779    1.1665   -0.3137 C   0  0  0  0  0  0  0  0  0  0  0  0
   -2.7779   -1.1669    0.3123 C   0  0  0  0  0  0  0  0  0  0  0  0
   -1.3830    1.1667   -0.3135 C   0  0  0  0  0  0  0  0  0  0  0  0
   -1.3830   -1.1668    0.3126 C   0  0  0  0  0  0  0  0  0  0  0  0
   -0.6856    0.0000   -0.0003 C   0  0  0  0  0  0  0  0  0  0  0  0
    0.7612    0.0001    0.0006 C   0  0  0  0  0  0  0  0  0  0  0  0
    1.4586    1.1667    0.3136 C   0  0  0  0  0  0  0  0  0  0  0  0
    1.4586   -1.1667   -0.3125 C   0  0  0  0  0  0  0  0  0  0  0  0
    2.8535    1.1667    0.3133 C   0  0  0  0  0  0  0  0  0  0  0  0
    2.8535   -1.1667   -0.3126 C   0  0  0  0  0  0  0  0  0  0  0  0
    3.5509    0.0000    0.0003 C   0  0  0  0  0  0  0  0  0  0  0  0
    4.9118    0.0001   -0.0010 O   0  0  0  0  0  0  0  0  0  0  0  0
  1  2  1  0  0  0  0 
  3  2  2  0  0  0  0 
  4  2  1  0  0  0  0 
  5  3  1  0  0  0  0 
  6  4  2  0  0  0  0 
  7  5  2  0  0  0  0 
  7  6  1  0  0  0  0 
  8  7  1  0  0  0  0 
  8  9  2  0  0  0  0 
  8 10  1  0  0  0  0 
  9 11  1  0  0  0  0 
 10 12  2  0  0  0  0 
 11 13  2  0  0  0  0 
 12 13  1  0  0  0  0 
 14 13  1  0  0  0  0 
M  END
> <Name>
4-(4-bromophenyl)phenol

> <Source>
Chemidplus3DMolFile

> <Tox>
5.310

> <CAS>
29558-77-8

$$$$

  CDK

 16 16  0  0  0  0  0  0  0  0999 V2000
    4.1647    6.0389    0.0000 O   0  0  0  0  0  0  0  0  0  0  0  0
    3.4567    4.8311    0.0000 C   0  0  0  0  0  0  0  0  0  0  0  0
    4.1647    3.6233    0.0000 C   0  0  0  0  0  0  0  0  0  0  0  0
    2.0824    4.8311    0.0000 C   0  0  0  0  0  0  0  0  0  0  0  0
    3.4567    2.4156    0.0000 C   0  0  0  0  0  0  0  0  0  0  0  0
    5.5808    3.6233    0.0000 N   0  0  0  0  0  0  0  0  0  0  0  0
    1.3744    3.6233    0.0000 C   0  0  0  0  0  0  0  0  0  0  0  0
    1.3744    6.0389    0.0000 N   0  0  0  0  0  0  0  0  0  0  0  0
    2.0824    2.4156    0.0000 C   0  0  0  0  0  0  0  0  0  0  0  0
    6.2888    4.8311    0.0000 O   0  0  0  0  0  0  0  0  0  0  0  0
    6.2888    2.4156    0.0000 O   0  0  0  0  0  0  0  0  0  0  0  0
    0.0000    6.0389    0.0000 O   0  0  0  0  0  0  0  0  0  0  0  0
    2.0824    7.2467    0.0000 O   0  0  0  0  0  0  0  0  0  0  0  0
    1.3744    1.2078    0.0000 N   0  0  0  0  0  0  0  0  0  0  0  0
    0.0000    1.2078    0.0000 O   0  0  0  0  0  0  0  0  0  0  0  0
    2.0824    0.0000    0.0000 O   0  0  0  0  0  0  0  0  0  0  0  0
  1  2  1  0  0  0  0 
  2  3  2  0  0  0  0 
  2  4  1  0  0  0  0 
  3  5  1  0  0  0  0 
  3  6  1  0  0  0  0 
  7  4  2  0  0  0  0 
  4  8  1  0  0  0  0 
  5  9  2  0  0  0  0 
  6 10  1  0  0  0  0 
  6 11  2  0  0  0  0 
  9  7  1  0  0  0  0 
  8 12  2  0  0  0  0 
  8 13  1  0  0  0  0 
  9 14  1  0  0  0  0 
 14 15  1  0  0  0  0 
 14 16  2  0  0  0  0 
M  CHG  1   6   1
M  CHG  1   8   1
M  CHG  1  10  -1
M  CHG  1  13  -1
M  CHG  1  14   1
M  CHG  1  15  -1
M  END
> <Name>
2,4,6-Trinitrophenol

> <Source>
IndexNet2DMolFile

> <Tox>
2.840

> <CAS>
29663-11-4

$$$$

  CDK

 13 13  0  0  0  0  0  0  0  0999 V2000
    4.1524    2.9067    1.6113 C   0  0  0  0  0  0  0  0  0  0  0  0
    2.7855    2.9950    1.8911 C   0  0  0  0  0  0  0  0  0  0  0  0
    4.8702    4.0320    1.1647 C   0  0  0  0  0  0  0  0  0  0  0  0
    4.7984    1.7064    1.8930 O   0  0  0  0  0  0  0  0  0  0  0  0
    2.1212    4.2107    1.7304 C   0  0  0  0  0  0  0  0  0  0  0  0
    4.1812    5.2551    1.0083 C   0  0  0  0  0  0  0  0  0  0  0  0
    6.1970    3.9054    0.7769 O   0  0  0  0  0  0  0  0  0  0  0  0
    4.9682    0.8765    0.7635 C   0  0  0  0  0  0  0  0  0  0  0  0
    2.8113    5.3377    1.2900 C   0  0  0  0  0  0  0  0  0  0  0  0
    0.6683    4.2712    2.0392 C   0  0  0  0  0  0  0  0  0  0  0  0
    4.9058    6.3337    0.5842 O   0  0  0  0  0  0  0  0  0  0  0  0
    7.1198    4.2651    1.7844 C   0  0  0  0  0  0  0  0  0  0  0  0
    0.0000    5.2742    1.9291 O   0  0  0  0  0  0  0  0  0  0  0  0
  1  2  2  0  0  0  0 
  3  1  1  0  0  0  0 
  1  4  1  0  0  0  0 
  2  5  1  0  0  0  0 
  6  3  2  0  0  0  0 
  3  7  1  0  0  0  0 
  4  8  1  0  0  0  0 
  5  9  2  0  0  0  0 
  5 10  1  0  0  0  0 
  9  6  1  0  0  0  0 
  6 11  1  0  0  0  0 
  7 12  1  0  0  0  0 
 10 13  2  0  0  0  0 
M  END
> <Name>
3,4-Dimethoxy-5-hydroxybenzaldehyde

> <Source>
NIST3DMolFile

> <Tox>
2.610

> <CAS>
29865-90-5

$$$$

  CDK

 15 17  0  0  0  0  0  0  0  0999 V2000
    0.8630    1.8782    0.0000 C   0  0  0  0  0  0  0  0  0  0  0  0
    0.0000    1.3706    0.0000 C   0  0  0  0  0  0  0  0  0  0  0  0
    1.7259    1.3706    0.0000 C   0  0  0  0  0  0  0  0  0  0  0  0
    0.0000    0.4569    0.0000 C   0  0  0  0  0  0  0  0  0  0  0  0
    1.7259    0.5076    0.0000 C   0  0  0  0  0  0  0  0  0  0  0  0
    2.5381    1.8782    0.0000 C   0  0  0  0  0  0  0  0  0  0  0  0
    0.9137    0.0000    0.0000 C   0  0  0  0  0  0  0  0  0  0  0  0
    3.4011    0.5076    0.0000 C   0  0  0  0  0  0  0  0  0  0  0  0
    3.4011    1.3706    0.0000 C   0  0  0  0  0  0  0  0  0  0  0  0
    4.2133    0.0508    0.0000 C   0  0  0  0  0  0  0  0  0  0  0  0
    4.1625    1.9290    0.0000 C   0  0  0  0  0  0  0  0  0  0  0  0
    5.0255    0.5584    0.0000 C   0  0  0  0  0  0  0  0  0  0  0  0
    5.0255    1.4213    0.0000 C   0  0  0  0  0  0  0  0  0  0  0  0
    5.9392    1.9290    0.0000 C   0  0  0  0  0  0  0  0  0  0  0  0
    6.8022    1.4213    0.0000 O   0  0  0  0  0  0  0  0  0  0  0  0
  2  1  2  0  0  0  0 
  1  3  1  0  0  0  0 
  4  2  1  0  0  0  0 
  5  3  2  0  0  0  0 
  3  6  1  0  0  0  0 
  7  4  2  0  0  0  0 
  5  7  1  0  0  0  0 
  8  5  1  0  0  0  0 
  6  9  1  0  0  0  0 
 10  8  2  0  0  0  0 
  9  8  1  0  0  0  0 
  9 11  2  0  0  0  0 
 12 10  1  0  0  0  0 
 11 13  1  0  0  0  0 
 13 12  2  0  0  0  0 
 13 14  1  0  0  0  0 
 14 15  2  0  0  0  0 
M  END
> <Name>
Fluorene-2-carboxaldehyde

> <Source>
NIST2DMolFile

> <Tox>
4.499

> <CAS>
30084-90-3

$$$$

  CDK

 10  9  0  0  0  0  0  0  0  0999 V2000
    7.0021    1.4652    1.3894 C   0  0  0  0  0  0  0  0  0  0  0  0
    5.6723    1.0004    1.0946 C   0  0  0  0  0  0  0  0  0  0  0  0
    8.1057    1.8435    1.6371 C   0  0  0  0  0  0  0  0  0  0  0  0
    4.6151    1.9726    1.6061 C   0  0  0  0  0  0  0  0  0  0  0  0
    9.4420    2.2852    1.9346 C   0  0  0  0  0  0  0  0  0  0  0  0
    3.2172    1.4122    1.4000 C   0  0  0  0  0  0  0  0  0  0  0  0
    9.6121    3.7666    1.5826 C   0  0  0  0  0  0  0  0  0  0  0  0
    2.1536    2.3824    1.8882 C   0  0  0  0  0  0  0  0  0  0  0  0
   10.9397    4.1187    1.8991 O   0  0  0  0  0  0  0  0  0  0  0  0
    0.7663    1.7973    1.7495 C   0  0  0  0  0  0  0  0  0  0  0  0
  1  2  1  0  0  0  0 
  1  3  3  0  0  0  0 
  2  4  1  0  0  0  0 
  3  5  1  0  0  0  0 
  4  6  1  0  0  0  0 
  5  7  1  0  0  0  0 
  6  8  1  0  0  0  0 
  7  9  1  0  0  0  0 
  8 10  1  0  0  0  0 
M  END
> <Name>
Non-3-yn-1-ol

> <Source>
NIST3DMolFile

> <Tox>
3.340

> <CAS>
31333-13-8

$$$$

  CDK

 10  9  0  0  0  0  0  0  0  0999 V2000
    7.0256    1.5754    1.0531 C   0  0  0  0  0  0  0  0  0  0  0  0
    5.7523    2.2036    1.6010 C   0  0  0  0  0  0  0  0  0  0  0  0
    8.1617    2.5344    1.0982 C   0  0  0  0  0  0  0  0  0  0  0  0
    4.5748    1.2490    1.4859 C   0  0  0  0  0  0  0  0  0  0  0  0
    9.3737    2.1982    1.5414 C   0  0  0  0  0  0  0  0  0  0  0  0
    3.2967    1.8837    2.0094 C   0  0  0  0  0  0  0  0  0  0  0  0
   10.5118    3.1670    1.5317 C   0  0  0  0  0  0  0  0  0  0  0  0
    2.1206    0.9253    1.9113 C   0  0  0  0  0  0  0  0  0  0  0  0
   11.4313    2.7669    2.5235 O   0  0  0  0  0  0  0  0  0  0  0  0
    0.8470    1.5576    2.4254 C   0  0  0  0  0  0  0  0  0  0  0  0
  1  2  1  0  0  0  0 
  1  3  1  0  0  0  0 
  2  4  1  0  0  0  0 
  3  5  2  0  0  0  0 
  4  6  1  0  0  0  0 
  5  7  1  0  0  0  0 
  6  8  1  0  0  0  0 
  7  9  1  0  0  0  0 
  8 10  1  0  0  0  0 
M  END
> <Name>
trans-2-Nonen-1-ol

> <Source>
NIST3DMolFile

> <Tox>
3.752

> <CAS>
31502-14-4

$$$$

  CDK

 10 10  0  0  0  0  0  0  0  0999 V2000
    1.3420   -1.0977   -0.0030 O   0  0  0  0  0  0  0  0  0  0  0  0
    0.8917    0.1843   -0.0022 C   0  0  0  0  0  0  0  0  0  0  0  0
    2.6993   -1.0329    0.0039 C   0  0  0  0  0  0  0  0  0  0  0  0
   -0.5156    0.3955   -0.0091 C   0  0  0  0  0  0  0  0  0  0  0  0
    1.9466    1.0669    0.0052 C   0  0  0  0  0  0  0  0  0  0  0  0
    3.1206    0.2764    0.0093 C   0  0  0  0  0  0  0  0  0  0  0  0
   -1.0161    1.5572   -0.0086 O   0  0  0  0  0  0  0  0  0  0  0  0
   -1.5030   -0.8036   -0.0168 C   0  0  0  0  0  0  0  0  0  0  0  0
   -2.9220   -0.4218    0.0030 C   0  0  0  0  0  0  0  0  0  0  0  0
   -4.0435   -0.1244    0.0183 N   0  0  0  0  0  0  0  0  0  0  0  0
  1  2  1  0  0  0  0 
  1  3  1  0  0  0  0 
  2  4  1  0  0  0  0 
  2  5  2  0  0  0  0 
  6  3  2  0  0  0  0 
  7  4  2  0  0  0  0 
  4  8  1  0  0  0  0 
  5  6  1  0  0  0  0 
  8  9  1  0  0  0  0 
 10  9  3  0  0  0  0 
M  END
> <Name>
3-(furan-2-yl)-3-oxidanylidene-propanenitrile

> <Source>
Chemidplus3DMolFile

> <Tox>
3.300

> <CAS>
31909-58-7

$$$$

  CDK

 13 12  0  0  0  0  0  0  0  0999 V2000
   -2.1057    0.9080    0.0047 O   0  0  0  0  0  0  0  0  0  0  0  0
   -0.9797    0.0960    0.0038 C   0  0  0  0  0  0  0  0  0  0  0  0
   -1.9327    2.3196    0.0040 C   0  0  0  0  0  0  0  0  0  0  0  0
   -1.1715   -1.2843    0.0034 O   0  0  0  0  0  0  0  0  0  0  0  0
    0.2839    0.5670    0.0024 C   0  0  0  0  0  0  0  0  0  0  0  0
   -3.2932    2.9830   -0.0099 C   0  0  0  0  0  0  0  0  0  0  0  0
   -2.5348   -1.6935    0.0050 C   0  0  0  0  0  0  0  0  0  0  0  0
    1.4819   -0.3136    0.0014 C   0  0  0  0  0  0  0  0  0  0  0  0
   -2.5955   -3.2061   -0.0106 C   0  0  0  0  0  0  0  0  0  0  0  0
    2.5788    0.4932   -0.0005 O   0  0  0  0  0  0  0  0  0  0  0  0
    1.4767   -1.5336    0.0021 O   0  0  0  0  0  0  0  0  0  0  0  0
    3.8408   -0.1825   -0.0018 C   0  0  0  0  0  0  0  0  0  0  0  0
    4.9511    0.8466   -0.0039 C   0  0  0  0  0  0  0  0  0  0  0  0
  1  2  1  0  0  0  0 
  1  3  1  0  0  0  0 
  4  2  1  0  0  0  0 
  2  5  2  0  0  0  0 
  3  6  1  0  0  0  0 
  4  7  1  0  0  0  0 
  5  8  1  0  0  0  0 
  7  9  1  0  0  0  0 
 10  8  1  0  0  0  0 
 11  8  2  0  0  0  0 
 10 12  1  0  0  0  0 
 12 13  1  0  0  0  0 
M  END
> <Name>
ethyl 3,3-diethoxyprop-2-enoate

> <Source>
Chemidplus3DMolFile

> <Tox>
2.350

> <CAS>
32002-24-7

$$$$

  CDK

  8  7  0  0  0  0  0  0  0  0999 V2000
    5.5842    1.0197    1.7509 C   0  0  0  0  0  0  0  0  0  0  0  0
    5.8220    0.8204    3.1362 O   0  0  0  0  0  0  0  0  0  0  0  0
    6.7500    1.7455    1.0481 C   0  0  0  0  0  0  0  0  0  0  0  0
    4.3613    1.7940    1.6196 C   0  0  0  0  0  0  0  0  0  0  0  0
    8.0131    0.9154    1.0938 C   0  0  0  0  0  0  0  0  0  0  0  0
    3.3530    2.4199    1.5111 C   0  0  0  0  0  0  0  0  0  0  0  0
    2.1368    3.1788    1.3786 C   0  0  0  0  0  0  0  0  0  0  0  0
    0.9182    2.2794    1.3144 C   0  0  0  0  0  0  0  0  0  0  0  0
  1  2  1  0  0  0  0 
  1  3  1  0  0  0  0 
  1  4  1  0  0  0  0 
  3  5  1  0  0  0  0 
  4  6  3  0  0  0  0 
  6  7  1  0  0  0  0 
  7  8  1  0  0  0  0 
M  END
> <Name>
4-Heptyn-3-ol

> <Source>
NIST3DMolFile

> <Tox>
2.966

> <CAS>
32398-69-9

$$$$

  CDK

  8  7  0  0  0  0  0  0  0  0999 V2000
    3.4830    0.5473    0.0000 C   0  0  0  0  0  0  0  0  0  0  0  0
    2.5874    0.0000    0.0000 C   0  0  0  0  0  0  0  0  0  0  0  0
    4.3289    0.0498    0.0000 C   0  0  0  0  0  0  0  0  0  0  0  0
    1.7415    0.4976    0.0000 C   0  0  0  0  0  0  0  0  0  0  0  0
    5.1748    0.4976    0.0000 C   0  0  0  0  0  0  0  0  0  0  0  0
    0.8956    0.0000    0.0000 C   0  0  0  0  0  0  0  0  0  0  0  0
    6.0704    0.0000    0.0000 O   0  0  0  0  0  0  0  0  0  0  0  0
    0.0000    0.4976    0.0000 C   0  0  0  0  0  0  0  0  0  0  0  0
  1  2  1  0  0  0  0 
  1  3  2  0  0  0  0 
  2  4  1  0  0  0  0 
  3  5  1  0  0  0  0 
  4  6  1  0  0  0  0 
  5  7  1  0  0  0  0 
  6  8  1  0  0  0  0 
M  END
> <Name>
2-Hepten-1-ol, (E)- (8CI)(9CI)

> <Source>
NIST2DMolFile

> <Tox>
3.045

> <CAS>
33467-76-4

$$$$

  CDK

 10 10  0  0  0  0  0  0  0  0999 V2000
    0.6816    3.1038   -0.0005 Cl  0  0  0  0  0  0  0  0  0  0  0  0
    0.4878    1.3937    0.0005 C   0  0  0  0  0  0  0  0  0  0  0  0
   -0.7911    0.8370    0.0006 C   0  0  0  0  0  0  0  0  0  0  0  0
    1.6093    0.5645    0.0000 C   0  0  0  0  0  0  0  0  0  0  0  0
   -0.9486   -0.5490    0.0002 C   0  0  0  0  0  0  0  0  0  0  0  0
    1.4520   -0.8215   -0.0006 C   0  0  0  0  0  0  0  0  0  0  0  0
   -2.1963   -1.0922   -0.0004 O   0  0  0  0  0  0  0  0  0  0  0  0
    0.1730   -1.3782   -0.0005 C   0  0  0  0  0  0  0  0  0  0  0  0
    2.8354   -1.8455    0.0005 Cl  0  0  0  0  0  0  0  0  0  0  0  0
   -3.3032   -0.2127    0.0002 C   0  0  0  0  0  0  0  0  0  0  0  0
  1  2  1  0  0  0  0 
  3  2  2  0  0  0  0 
  2  4  1  0  0  0  0 
  5  3  1  0  0  0  0 
  6  4  2  0  0  0  0 
  7  5  1  0  0  0  0 
  5  8  2  0  0  0  0 
  9  6  1  0  0  0  0 
  8  6  1  0  0  0  0 
  7 10  1  0  0  0  0 
M  END
> <Name>
1,3-dichloro-5-methoxybenzene

> <Source>
Chemidplus3DMolFile

> <Tox>
3.930

> <CAS>
33719-74-3

$$$$

  CDK

 13 14  0  0  0  0  0  0  0  0999 V2000
    2.1477    4.6098    0.8653 C   0  0  0  0  0  0  0  0  0  0  0  0
    2.7652    5.8287    0.8652 C   0  0  0  0  0  0  0  0  0  0  0  0
    2.9082    3.4067    0.8650 C   0  0  0  0  0  0  0  0  0  0  0  0
    4.1776    5.9098    0.8648 C   0  0  0  0  0  0  0  0  0  0  0  0
    4.3194    3.4846    0.8657 C   0  0  0  0  0  0  0  0  0  0  0  0
    2.2707    2.1308    0.8645 C   0  0  0  0  0  0  0  0  0  0  0  0
    4.9309    4.7696    0.8650 C   0  0  0  0  0  0  0  0  0  0  0  0
    5.0894    2.2841    0.8674 C   0  0  0  0  0  0  0  0  0  0  0  0
    3.0424    0.9896    0.8648 C   0  0  0  0  0  0  0  0  0  0  0  0
    0.7955    1.9686    0.8628 C   0  0  0  0  0  0  0  0  0  0  0  0
    4.4465    1.0664    0.8664 C   0  0  0  0  0  0  0  0  0  0  0  0
    6.5761    2.3120    0.8718 C   0  0  0  0  0  0  0  0  0  0  0  0
    0.0000    2.8843    0.8637 O   0  0  0  0  0  0  0  0  0  0  0  0
  1  2  2  0  0  0  0 
  3  1  1  0  0  0  0 
  2  4  1  0  0  0  0 
  3  5  2  0  0  0  0 
  6  3  1  0  0  0  0 
  4  7  2  0  0  0  0 
  7  5  1  0  0  0  0 
  5  8  1  0  0  0  0 
  9  6  2  0  0  0  0 
  6 10  1  0  0  0  0 
  8 11  2  0  0  0  0 
  8 12  1  0  0  0  0 
 11  9  1  0  0  0  0 
 10 13  2  0  0  0  0 
M  END
> <Name>
1-Naphthalenecarboxaldehyde, 4-methyl-

> <Source>
NIST3DMolFile

> <Tox>
4.123

> <CAS>
33738-48-6

$$$$

  CDK

  5  4  0  0  0  0  0  0  0  0999 V2000
   -0.6315    1.4103    0.1115 N   0  0  0  0  0  0  0  0  0  0  0  0
   -0.4568   -0.0021   -0.3155 C   0  0  0  0  0  0  0  0  0  0  0  0
    0.7822   -0.6162    0.3472 C   0  0  0  0  0  0  0  0  0  0  0  0
   -1.6836   -0.8638   -0.0239 C   0  0  0  0  0  0  0  0  0  0  0  0
    2.0721   -0.0114   -0.1594 C   0  0  0  0  0  0  0  0  0  0  0  0
  1  2  1  0  0  0  0 
  2  3  1  0  0  0  0 
  2  4  1  0  0  0  0 
  3  5  1  0  0  0  0 
M  END
> <Name>
(+/-)-sec butylamine

> <Source>
DougDB3DMolFile

> <Tox>
2.329

> <CAS>
33966-50-6

$$$$

  CDK

  8  7  0  0  0  0  0  0  0  0999 V2000
    0.7000    1.2124    0.0000 C   0  0  0  0  0  0  0  0  0  0  0  0
    0.0000    0.0000    0.0000 C   0  0  0  0  0  0  0  0  0  0  0  0
    0.0000    2.4249    0.0000 O   0  0  0  0  0  0  0  0  0  0  0  0
    2.1000    1.2124    0.0000 O   0  0  0  0  0  0  0  0  0  0  0  0
    2.8000    0.0000    0.0000 C   0  0  0  0  0  0  0  0  0  0  0  0
    4.2000    0.0000    0.0000 C   0  0  0  0  0  0  0  0  0  0  0  0
    5.6000    0.0000    0.0000 C   0  0  0  0  0  0  0  0  0  0  0  0
    7.0000    0.0000    0.0000 C   0  0  0  0  0  0  0  0  0  0  0  0
  1  2  1  0  0  0  0 
  1  3  2  0  0  0  0 
  1  4  1  0  0  0  0 
  4  5  1  0  0  0  0 
  5  6  1  0  0  0  0 
  6  7  3  0  0  0  0 
  7  8  1  0  0  0  0 
M  END
> <Name>
2-Butyn-1-ol,acetate (9CI)

> <Source>
Name2DMolFile

> <Tox>
2.117

> <CAS>
34485-37-5

$$$$

  CDK

  5  4  0  0  0  0  0  0  0  0999 V2000
    0.0000    0.0000    0.0000 C   0  0  0  0  0  0  0  0  0  0  0  0
    0.8111    0.5069    0.0000 N   0  0  0  0  0  0  0  0  0  0  0  0
    1.7236    0.0000    0.0000 C   0  0  0  0  0  0  0  0  0  0  0  0
    2.5854    0.5069    0.0000 C   0  0  0  0  0  0  0  0  0  0  0  0
    3.4472    1.0139    0.0000 C   0  0  0  0  0  0  0  0  0  0  0  0
  1  2  1  0  0  0  0 
  2  3  1  0  0  0  0 
  3  4  1  0  0  0  0 
  4  5  3  0  0  0  0 
M  END
> <Name>
2-Propyn-1-amine, N-methyl-

> <Source>
NIST2DMolFile

> <Tox>
2.018

> <CAS>
35161-71-8

$$$$

  CDK

 13 14  0  0  0  0  0  0  0  0999 V2000
    2.1000    1.2124    0.0000 C   0  0  0  0  0  0  0  0  0  0  0  0
    1.4000    2.4249    0.0000 C   0  0  0  0  0  0  0  0  0  0  0  0
    3.5000    1.2124    0.0000 C   0  0  0  0  0  0  0  0  0  0  0  0
    1.4000    0.0000    0.0000 C   0  0  0  0  0  0  0  0  0  0  0  0
    2.1000    3.6373    0.0000 C   0  0  0  0  0  0  0  0  0  0  0  0
    0.0000    2.4249    0.0000 C   0  0  0  0  0  0  0  0  0  0  0  0
    4.2000    0.0000    0.0000 C   0  0  0  0  0  0  0  0  0  0  0  0
    4.2000    2.4249    0.0000 C   0  0  0  0  0  0  0  0  0  0  0  0
    0.0000    0.0000    0.0000 O   0  0  0  0  0  0  0  0  0  0  0  0
    3.5000    3.6373    0.0000 C   0  0  0  0  0  0  0  0  0  0  0  0
    5.6000    0.0000    0.0000 C   0  0  0  0  0  0  0  0  0  0  0  0
    5.6000    2.4249    0.0000 C   0  0  0  0  0  0  0  0  0  0  0  0
    6.3000    1.2124    0.0000 C   0  0  0  0  0  0  0  0  0  0  0  0
  1  2  1  0  0  0  0 
  1  3  2  0  0  0  0 
  1  4  1  0  0  0  0 
  2  5  2  0  0  0  0 
  2  6  1  0  0  0  0 
  7  3  1  0  0  0  0 
  8  3  1  0  0  0  0 
  4  9  2  0  0  0  0 
  5 10  1  0  0  0  0 
 11  7  2  0  0  0  0 
 10  8  2  0  0  0  0 
  8 12  1  0  0  0  0 
 13 11  1  0  0  0  0 
 12 13  2  0  0  0  0 
M  END
> <Name>
1-Naphthaldehyde,2-methyl- (6CI,7CI)

> <Source>
Name2DMolFile

> <Tox>
4.231

> <CAS>
35699-44-6

$$$$

  CDK

 14 15  0  0  0  0  0  0  0  0999 V2000
   -3.6568    0.9428    0.0008 O   0  0  0  0  0  0  0  0  0  0  0  0
   -2.8466   -0.0132    0.0002 N   0  0  0  0  0  0  0  0  0  0  0  0
   -3.2218   -1.2089   -0.0004 O   0  0  0  0  0  0  0  0  0  0  0  0
   -1.4514    0.2688   -0.0004 C   0  0  0  0  0  0  0  0  0  0  0  0
   -0.5019   -0.7489   -0.0004 C   0  0  0  0  0  0  0  0  0  0  0  0
   -1.0358    1.5945   -0.0002 C   0  0  0  0  0  0  0  0  0  0  0  0
   -0.9399   -2.0988    0.0001 N   0  0  0  0  0  0  0  0  0  0  0  0
    0.8693   -0.4419   -0.0001 C   0  0  0  0  0  0  0  0  0  0  0  0
    0.3275    1.8995    0.0000 C   0  0  0  0  0  0  0  0  0  0  0  0
    1.2985    0.9019   -0.0001 C   0  0  0  0  0  0  0  0  0  0  0  0
    1.8465   -1.4466    0.0002 C   0  0  0  0  0  0  0  0  0  0  0  0
    2.6042    1.2307   -0.0001 N   0  0  0  0  0  0  0  0  0  0  0  0
    3.1926   -1.1109    0.0004 C   0  0  0  0  0  0  0  0  0  0  0  0
    3.5155    0.2310    0.0001 C   0  0  0  0  0  0  0  0  0  0  0  0
  1  2  1  0  0  0  0 
  3  2  2  0  0  0  0 
  2  4  1  0  0  0  0 
  5  4  2  0  0  0  0 
  4  6  1  0  0  0  0 
  7  5  1  0  0  0  0 
  8  5  1  0  0  0  0 
  9  6  2  0  0  0  0 
  8 10  2  0  0  0  0 
  8 11  1  0  0  0  0 
 10  9  1  0  0  0  0 
 12 10  1  0  0  0  0 
 11 13  2  0  0  0  0 
 12 14  2  0  0  0  0 
 13 14  1  0  0  0  0 
M  CHG  1   1  -1
M  CHG  1   2   1
M  END
> <Name>
6-nitroquinolin-5-amine

> <Source>
Chemidplus3DMolFile

> <Tox>
3.920

> <CAS>
35975-00-9

$$$$

  CDK

 12 12  0  0  0  0  0  0  0  0999 V2000
    3.0710    0.8055    0.0000 C   0  0  0  0  0  0  0  0  0  0  0  0
    2.0641    0.8055    0.0000 C   0  0  0  0  0  0  0  0  0  0  0  0
    3.5744    1.7117    0.0000 C   0  0  0  0  0  0  0  0  0  0  0  0
    1.5607    1.7117    0.0000 C   0  0  0  0  0  0  0  0  0  0  0  0
    1.5607    0.0000    0.0000 O   0  0  0  0  0  0  0  0  0  0  0  0
    3.0710    2.5676    0.0000 C   0  0  0  0  0  0  0  0  0  0  0  0
    4.5813    1.7117    0.0000 C   0  0  0  0  0  0  0  0  0  0  0  0
    2.0641    2.5676    0.0000 C   0  0  0  0  0  0  0  0  0  0  0  0
    0.5538    1.7117    0.0000 C   0  0  0  0  0  0  0  0  0  0  0  0
    3.5744    3.4234    0.0000 C   0  0  0  0  0  0  0  0  0  0  0  0
    0.0503    0.8559    0.0000 C   0  0  0  0  0  0  0  0  0  0  0  0
    0.0000    2.5172    0.0000 O   0  0  0  0  0  0  0  0  0  0  0  0
  2  1  2  0  0  0  0 
  1  3  1  0  0  0  0 
  4  2  1  0  0  0  0 
  2  5  1  0  0  0  0 
  3  6  2  0  0  0  0 
  3  7  1  0  0  0  0 
  8  4  2  0  0  0  0 
  4  9  1  0  0  0  0 
  6  8  1  0  0  0  0 
  6 10  1  0  0  0  0 
  9 11  1  0  0  0  0 
  9 12  2  0  0  0  0 
M  END
> <Name>
2'-Hydroxy-4',5'-dimethylacetophenone

> <Source>
NIST2DMolFile

> <Tox>
3.710

> <CAS>
36436-65-4

$$$$

  CDK

  6  6  0  0  0  0  0  0  0  0999 V2000
    0.0000   -0.9390    0.0000 C   0  0  0  0  0  0  0  0  0  0  0  0
    1.3245   -0.9390    0.0000 C   0  0  0  0  0  0  0  0  0  0  0  0
    2.2681   -1.8825    0.0000 C   0  0  0  0  0  0  0  0  0  0  0  0
    2.2681   -0.0000    0.0000 O   0  0  0  0  0  0  0  0  0  0  0  0
    3.2116   -0.9390    0.0000 C   0  0  0  0  0  0  0  0  0  0  0  0
    4.5361   -0.9390    0.0000 O   0  0  0  0  0  0  0  0  0  0  0  0
  1  2  1  0  0  0  0 
  2  3  1  0  0  0  0 
  2  4  1  0  0  0  0 
  3  5  1  0  0  0  0 
  4  5  1  0  0  0  0 
  5  6  2  0  0  0  0 
M  END
> <Name>
(+/-)-beta-butyrolactone

> <Source>
DSSTox2DMolFile

> <Tox>
2.241

> <CAS>
36536-46-6

$$$$

  CDK

  6  5  0  0  0  0  0  0  0  0999 V2000
    1.9850   -1.1519    0.0000 C   0  0  0  0  0  0  0  0  0  0  0  0
    3.3123   -1.1519    0.0000 C   0  0  0  0  0  0  0  0  0  0  0  0
    1.3273   -0.0000    0.0000 O   0  0  0  0  0  0  0  0  0  0  0  0
    3.9860   -0.0000    0.0000 C   0  0  0  0  0  0  0  0  0  0  0  0
    3.9860   -2.3039    0.0000 N   0  0  0  0  0  0  0  0  0  0  0  0
    0.0000   -0.0000    0.0000 C   0  0  0  0  0  0  0  0  0  0  0  0
  1  2  1  0  0  0  0 
  1  3  1  0  0  0  0 
  2  4  1  0  0  0  0 
  2  5  1  0  0  0  0 
  3  6  1  0  0  0  0 
M  END
> <Name>
2-Propanamine, 1-methoxy-

> <Source>
DSSTox2DMolFile

> <Tox>
2.167

> <CAS>
37143-54-7

$$$$

  CDK

 12 12  0  0  0  0  0  0  0  0999 V2000
    3.4453    0.5067    0.0000 C   0  0  0  0  0  0  0  0  0  0  0  0
    3.4453    1.5200    0.0000 C   0  0  0  0  0  0  0  0  0  0  0  0
    2.5839    0.0000    0.0000 C   0  0  0  0  0  0  0  0  0  0  0  0
    2.5839    1.9760    0.0000 C   0  0  0  0  0  0  0  0  0  0  0  0
    4.3066    2.0266    0.0000 C   0  0  0  0  0  0  0  0  0  0  0  0
    1.7226    0.5067    0.0000 C   0  0  0  0  0  0  0  0  0  0  0  0
    1.7226    1.5200    0.0000 C   0  0  0  0  0  0  0  0  0  0  0  0
    2.5839    2.9893    0.0000 Cl  0  0  0  0  0  0  0  0  0  0  0  0
    4.3066    3.0399    0.0000 O   0  0  0  0  0  0  0  0  0  0  0  0
    0.8613    0.0000    0.0000 O   0  0  0  0  0  0  0  0  0  0  0  0
    0.8613    1.9760    0.0000 O   0  0  0  0  0  0  0  0  0  0  0  0
    0.0000    0.5573    0.0000 C   0  0  0  0  0  0  0  0  0  0  0  0
  2  1  2  0  0  0  0 
  1  3  1  0  0  0  0 
  4  2  1  0  0  0  0 
  2  5  1  0  0  0  0 
  3  6  2  0  0  0  0 
  7  4  2  0  0  0  0 
  4  8  1  0  0  0  0 
  5  9  2  0  0  0  0 
  6  7  1  0  0  0  0 
  6 10  1  0  0  0  0 
  7 11  1  0  0  0  0 
 10 12  1  0  0  0  0 
M  END
> <Name>
2-Chloro-3-hydroxy-p-anisaldehyde

> <Source>
NIST2DMolFile

> <Tox>
3.204

> <CAS>
37687-57-3

$$$$

  CDK

 19 19  0  0  0  0  0  0  0  0999 V2000
   12.5298    1.3425    0.0000 C   0  0  0  0  0  0  0  0  0  0  0  0
   11.6348    0.7955    0.0000 C   0  0  0  0  0  0  0  0  0  0  0  0
   10.7896    1.3425    0.0000 C   0  0  0  0  0  0  0  0  0  0  0  0
    9.8946    0.7955    0.0000 C   0  0  0  0  0  0  0  0  0  0  0  0
    8.9996    1.3425    0.0000 C   0  0  0  0  0  0  0  0  0  0  0  0
    8.1543    0.7955    0.0000 C   0  0  0  0  0  0  0  0  0  0  0  0
    7.2593    1.3425    0.0000 C   0  0  0  0  0  0  0  0  0  0  0  0
    6.3643    0.7955    0.0000 C   0  0  0  0  0  0  0  0  0  0  0  0
    5.4694    1.3425    0.0000 C   0  0  0  0  0  0  0  0  0  0  0  0
    4.6241    0.8453    0.0000 O   0  0  0  0  0  0  0  0  0  0  0  0
    3.7788    1.3425    0.0000 C   0  0  0  0  0  0  0  0  0  0  0  0
    3.7788    2.2872    0.0000 O   0  0  0  0  0  0  0  0  0  0  0  0
    2.9336    0.8453    0.0000 C   0  0  0  0  0  0  0  0  0  0  0  0
    2.4364    1.6905    0.0000 C   0  0  0  0  0  0  0  0  0  0  0  0
    2.4364    0.0000    0.0000 C   0  0  0  0  0  0  0  0  0  0  0  0
    1.4916    1.6905    0.0000 C   0  0  0  0  0  0  0  0  0  0  0  0
    1.4916    0.0000    0.0000 C   0  0  0  0  0  0  0  0  0  0  0  0
    0.9944    0.8453    0.0000 C   0  0  0  0  0  0  0  0  0  0  0  0
    0.0000    0.8453    0.0000 O   0  0  0  0  0  0  0  0  0  0  0  0
  1  2  1  0  0  0  0 
  2  3  1  0  0  0  0 
  3  4  1  0  0  0  0 
  4  5  1  0  0  0  0 
  5  6  1  0  0  0  0 
  6  7  1  0  0  0  0 
  7  8  1  0  0  0  0 
  8  9  1  0  0  0  0 
  9 10  1  0  0  0  0 
 10 11  1  0  0  0  0 
 12 11  2  0  0  0  0 
 11 13  1  0  0  0  0 
 14 13  2  0  0  0  0 
 13 15  1  0  0  0  0 
 16 14  1  0  0  0  0 
 15 17  2  0  0  0  0 
 18 16  2  0  0  0  0 
 17 18  1  0  0  0  0 
 19 18  1  0  0  0  0 
M  END
> <Name>
Benzoic acid, 4-hydroxy-, nonyl ester

> <Source>
NIST2DMolFile

> <Tox>
5.630

> <CAS>
38713-56-3

$$$$

  CDK

  9  9  0  0  0  0  0  0  0  0999 V2000
    1.3673   -0.7023    0.0000 C   0  0  0  0  0  0  0  0  0  0  0  0
    0.6529   -0.2898    0.0000 C   0  0  0  0  0  0  0  0  0  0  0  0
    2.0818   -0.2898    0.0000 O   0  0  0  0  0  0  0  0  0  0  0  0
   -0.0616   -0.7023    0.0000 C   0  0  0  0  0  0  0  0  0  0  0  0
   -0.7761   -0.2898    0.0000 C   0  0  0  0  0  0  0  0  0  0  0  0
   -0.8623    0.5307    0.0000 O   0  0  0  0  0  0  0  0  0  0  0  0
   -1.5298   -0.6253    0.0000 C   0  0  0  0  0  0  0  0  0  0  0  0
   -1.6693    0.7023    0.0000 C   0  0  0  0  0  0  0  0  0  0  0  0
   -2.0818   -0.0122    0.0000 C   0  0  0  0  0  0  0  0  0  0  0  0
  1  2  1  0  0  0  0 
  1  3  2  0  0  0  0 
  2  4  2  0  0  0  0 
  4  5  1  0  0  0  0 
  6  5  1  0  0  0  0 
  5  7  2  0  0  0  0 
  6  8  1  0  0  0  0 
  7  9  1  0  0  0  0 
  9  8  2  0  0  0  0 
M  END
> <Name>
2-Propenal,3-(2-furanyl)-, (E)-

> <Source>
Name2DMolFile

> <Tox>
3.370

> <CAS>
39511-08-5

$$$$

  CDK

 13 13  0  0  0  0  0  0  0  0999 V2000
    1.7687    2.0214    0.0000 C   0  0  0  0  0  0  0  0  0  0  0  0
    1.7687    2.9816    0.0000 C   0  0  0  0  0  0  0  0  0  0  0  0
    0.9096    1.5161    0.0000 C   0  0  0  0  0  0  0  0  0  0  0  0
    0.9096    3.4870    0.0000 C   0  0  0  0  0  0  0  0  0  0  0  0
    0.0000    2.0214    0.0000 C   0  0  0  0  0  0  0  0  0  0  0  0
    0.9096    0.5054    0.0000 O   0  0  0  0  0  0  0  0  0  0  0  0
    0.0000    2.9816    0.0000 C   0  0  0  0  0  0  0  0  0  0  0  0
    0.9096    4.4977    0.0000 N   0  0  0  0  0  0  0  0  0  0  0  0
    1.7687    0.0000    0.0000 C   0  0  0  0  0  0  0  0  0  0  0  0
    2.6279    0.5054    0.0000 C   0  0  0  0  0  0  0  0  0  0  0  0
    3.4870    0.0000    0.0000 C   0  0  0  0  0  0  0  0  0  0  0  0
    4.3461    0.5054    0.0000 C   0  0  0  0  0  0  0  0  0  0  0  0
    5.2052    0.0000    0.0000 C   0  0  0  0  0  0  0  0  0  0  0  0
  2  1  2  0  0  0  0 
  1  3  1  0  0  0  0 
  4  2  1  0  0  0  0 
  3  5  2  0  0  0  0 
  3  6  1  0  0  0  0 
  7  4  2  0  0  0  0 
  4  8  1  0  0  0  0 
  5  7  1  0  0  0  0 
  6  9  1  0  0  0  0 
 10  9  1  0  0  0  0 
 11 10  1  0  0  0  0 
 12 11  1  0  0  0  0 
 13 12  1  0  0  0  0 
M  END
> <Name>
Benzenamine, 4-(pentyloxy)-

> <Source>
NIST2DMolFile

> <Tox>
3.970

> <CAS>
39905-50-5

$$$$

  CDK

 14 14  0  0  0  0  0  0  0  0999 V2000
    8.6394   -0.0000    0.0000 N   0  0  0  0  0  0  0  0  0  0  0  0
    7.9742   -1.1490    0.0000 C   0  0  0  0  0  0  0  0  0  0  0  0
    8.6394   -2.3067    0.0000 C   0  0  0  0  0  0  0  0  0  0  0  0
    6.6437   -1.1490    0.0000 C   0  0  0  0  0  0  0  0  0  0  0  0
    7.9742   -3.4558    0.0000 C   0  0  0  0  0  0  0  0  0  0  0  0
    5.9785   -2.3067    0.0000 C   0  0  0  0  0  0  0  0  0  0  0  0
    6.6437   -3.4558    0.0000 C   0  0  0  0  0  0  0  0  0  0  0  0
    5.9785   -4.6048    0.0000 O   0  0  0  0  0  0  0  0  0  0  0  0
    4.6480   -4.6048    0.0000 C   0  0  0  0  0  0  0  0  0  0  0  0
    3.9914   -3.4558    0.0000 C   0  0  0  0  0  0  0  0  0  0  0  0
    2.6609   -3.4558    0.0000 C   0  0  0  0  0  0  0  0  0  0  0  0
    1.9957   -2.3067    0.0000 C   0  0  0  0  0  0  0  0  0  0  0  0
    0.6652   -2.3067    0.0000 C   0  0  0  0  0  0  0  0  0  0  0  0
    0.0000   -1.1490    0.0000 C   0  0  0  0  0  0  0  0  0  0  0  0
  1  2  1  0  0  0  0 
  2  3  2  0  0  0  0 
  2  4  1  0  0  0  0 
  3  5  1  0  0  0  0 
  6  4  2  0  0  0  0 
  5  7  2  0  0  0  0 
  7  6  1  0  0  0  0 
  7  8  1  0  0  0  0 
  8  9  1  0  0  0  0 
  9 10  1  0  0  0  0 
 10 11  1  0  0  0  0 
 11 12  1  0  0  0  0 
 12 13  1  0  0  0  0 
 13 14  1  0  0  0  0 
M  END
> <Name>
Benzenamine, 4-(hexyloxy)-

> <Source>
DSSTox2DMolFile

> <Tox>
4.380

> <CAS>
39905-57-2

$$$$

  CDK

 12 12  0  0  0  0  0  0  0  0999 V2000
    2.6338   -0.0229    0.4188 O   0  0  0  0  0  0  0  0  0  0  0  0
    1.3790    0.0422   -0.1189 C   0  0  0  0  0  0  0  0  0  0  0  0
    3.7104    0.0032   -0.5240 C   0  0  0  0  0  0  0  0  0  0  0  0
    1.1147    0.1190   -1.3113 O   0  0  0  0  0  0  0  0  0  0  0  0
    0.3488    0.0062    0.9952 C   0  0  0  0  0  0  0  0  0  0  0  0
    5.0236   -0.0758    0.2249 C   0  0  0  0  0  0  0  0  0  0  0  0
   -1.0568    0.0114    0.5086 C   0  0  0  0  0  0  0  0  0  0  0  0
   -1.7403    1.2051    0.3053 C   0  0  0  0  0  0  0  0  0  0  0  0
   -1.7259   -1.1724    0.2426 C   0  0  0  0  0  0  0  0  0  0  0  0
   -3.0533    1.1789   -0.1513 C   0  0  0  0  0  0  0  0  0  0  0  0
   -3.0010   -1.2376   -0.2021 N   0  0  0  0  0  0  0  0  0  0  0  0
   -3.6331   -0.0571   -0.3879 C   0  0  0  0  0  0  0  0  0  0  0  0
  1  2  1  0  0  0  0 
  1  3  1  0  0  0  0 
  4  2  2  0  0  0  0 
  5  2  1  0  0  0  0 
  3  6  1  0  0  0  0 
  5  7  1  0  0  0  0 
  7  8  1  0  0  0  0 
  7  9  2  0  0  0  0 
  8 10  2  0  0  0  0 
 11  9  1  0  0  0  0 
 10 12  1  0  0  0  0 
 11 12  2  0  0  0  0 
M  END
> <Name>
ethyl 2-pyridin-3-ylethanoate

> <Source>
Chemidplus3DMolFile

> <Tox>
2.060

> <CAS>
39931-77-6

$$$$

  CDK

  7  7  0  0  0  0  0  0  0  0999 V2000
    3.0067    2.9605    0.0000 Cl  0  0  0  0  0  0  0  0  0  0  0  0
    2.0353    1.9891    0.0000 C   0  0  0  0  0  0  0  0  0  0  0  0
    2.2204    0.6013    0.0000 C   0  0  0  0  0  0  0  0  0  0  0  0
    0.6476    2.2204    0.0000 S   0  0  0  0  0  0  0  0  0  0  0  0
    3.4693    0.0000    0.0000 Br  0  0  0  0  0  0  0  0  0  0  0  0
    1.0177    0.0000    0.0000 C   0  0  0  0  0  0  0  0  0  0  0  0
    0.0000    0.9714    0.0000 C   0  0  0  0  0  0  0  0  0  0  0  0
  1  2  1  0  0  0  0 
  2  3  2  0  0  0  0 
  2  4  1  0  0  0  0 
  3  5  1  0  0  0  0 
  3  6  1  0  0  0  0 
  4  7  1  0  0  0  0 
  6  7  2  0  0  0  0 
M  END
> <Name>
3-Bromo-2-chlorothiophene

> <Source>
IndexNet2DMolFile

> <Tox>
3.730

> <CAS>
40032-73-3

$$$$

  CDK

  7  6  0  0  0  0  0  0  0  0999 V2000
    1.6801   -1.9767    0.3008 O   0  0  0  0  0  0  0  0  0  0  0  0
    0.5110   -2.0327   -0.5217 C   0  0  0  0  0  0  0  0  0  0  0  0
    0.1297   -0.6015   -0.9076 C   0  0  0  0  0  0  0  0  0  0  0  0
    0.8024   -2.9255   -1.7259 C   0  0  0  0  0  0  0  0  0  0  0  0
   -1.0923   -0.5549   -1.6990 N   0  0  0  0  0  0  0  0  0  0  0  0
    1.1764   -4.2184   -1.2602 O   0  0  0  0  0  0  0  0  0  0  0  0
   -1.4629    0.8203   -2.0043 C   0  0  0  0  0  0  0  0  0  0  0  0
  1  2  1  0  0  0  0 
  2  3  1  0  0  0  0 
  2  4  1  0  0  0  0 
  5  3  1  0  0  0  0 
  6  4  1  0  0  0  0 
  5  7  1  0  0  0  0 
M  END
> <Name>
3-(Methylamino)propane-1,2-diol

> <Source>
Chemidplus3DMolFile

> <Tox>
1.466

> <CAS>
40137-22-2

$$$$

  CDK

 13 13  0  0  0  0  0  0  0  0999 V2000
    2.0968    1.1184   -0.0006 C   0  0  0  0  0  0  0  0  0  0  0  0
    0.9752    0.1336   -0.0004 C   0  0  0  0  0  0  0  0  0  0  0  0
    1.9384    2.3392   -0.0001 O   0  0  0  0  0  0  0  0  0  0  0  0
    3.4113    0.6657   -0.0014 N   0  0  0  0  0  0  0  0  0  0  0  0
    1.1448   -1.2645    0.0006 C   0  0  0  0  0  0  0  0  0  0  0  0
   -0.3284    0.6381   -0.0010 C   0  0  0  0  0  0  0  0  0  0  0  0
    0.0338   -2.1213    0.0013 C   0  0  0  0  0  0  0  0  0  0  0  0
    2.4199   -1.7594    0.0010 O   0  0  0  0  0  0  0  0  0  0  0  0
   -1.4401   -0.2046   -0.0001 C   0  0  0  0  0  0  0  0  0  0  0  0
   -1.2460   -1.5903    0.0010 C   0  0  0  0  0  0  0  0  0  0  0  0
   -2.8310    0.3403   -0.0003 C   0  0  0  0  0  0  0  0  0  0  0  0
   -3.7974   -0.4032   -0.0040 O   0  0  0  0  0  0  0  0  0  0  0  0
   -3.0103    1.8352    0.0040 C   0  0  0  0  0  0  0  0  0  0  0  0
  1  2  1  0  0  0  0 
  1  3  2  0  0  0  0 
  1  4  1  0  0  0  0 
  2  5  1  0  0  0  0 
  2  6  2  0  0  0  0 
  5  7  2  0  0  0  0 
  5  8  1  0  0  0  0 
  9  6  1  0  0  0  0 
  7 10  1  0  0  0  0 
 10  9  2  0  0  0  0 
  9 11  1  0  0  0  0 
 11 12  2  0  0  0  0 
 11 13  1  0  0  0  0 
M  END
> <Name>
Benzamide, 5-acetyl-2-hydroxy-

> <Source>
DougDB3DMolFile

> <Tox>
2.900

> <CAS>
40187-51-7

$$$$

  CDK

 16 15  0  0  0  0  0  0  0  0999 V2000
    1.7081    1.0048    0.0000 C   0  0  0  0  0  0  0  0  0  0  0  0
    2.6124    1.5072    0.0000 C   0  0  0  0  0  0  0  0  0  0  0  0
    1.7081    0.0000    0.0000 O   0  0  0  0  0  0  0  0  0  0  0  0
    0.8541    1.5072    0.0000 O   0  0  0  0  0  0  0  0  0  0  0  0
    3.4665    1.0048    0.0000 C   0  0  0  0  0  0  0  0  0  0  0  0
    0.8541    2.4617    0.0000 C   0  0  0  0  0  0  0  0  0  0  0  0
    4.3708    1.5072    0.0000 C   0  0  0  0  0  0  0  0  0  0  0  0
    0.0000    2.9641    0.0000 C   0  0  0  0  0  0  0  0  0  0  0  0
    5.1746    1.0048    0.0000 C   0  0  0  0  0  0  0  0  0  0  0  0
    6.0287    1.5072    0.0000 C   0  0  0  0  0  0  0  0  0  0  0  0
    5.1746    0.0000    0.0000 O   0  0  0  0  0  0  0  0  0  0  0  0
    6.9330    1.0048    0.0000 C   0  0  0  0  0  0  0  0  0  0  0  0
    7.7871    1.5072    0.0000 O   0  0  0  0  0  0  0  0  0  0  0  0
    6.9330    0.0000    0.0000 O   0  0  0  0  0  0  0  0  0  0  0  0
    8.6914    1.0048    0.0000 C   0  0  0  0  0  0  0  0  0  0  0  0
    9.5455    1.5072    0.0000 C   0  0  0  0  0  0  0  0  0  0  0  0
  1  2  1  0  0  0  0 
  1  3  2  0  0  0  0 
  1  4  1  0  0  0  0 
  2  5  1  0  0  0  0 
  4  6  1  0  0  0  0 
  5  7  1  0  0  0  0 
  6  8  1  0  0  0  0 
  7  9  1  0  0  0  0 
  9 10  1  0  0  0  0 
  9 11  2  0  0  0  0 
 10 12  1  0  0  0  0 
 13 12  1  0  0  0  0 
 12 14  2  0  0  0  0 
 15 13  1  0  0  0  0 
 16 15  1  0  0  0  0 
M  END
> <Name>
Diethyl 3-oxoheptanedioate

> <Source>
NIST2DMolFile

> <Tox>
2.622

> <CAS>
40420-22-2

$$$$

  CDK

 13 13  0  0  0  0  0  0  0  0999 V2000
    0.7000    2.4249    0.0000 C   0  0  0  0  0  0  0  0  0  0  0  0
    2.1000    2.4249    0.0000 C   0  0  0  0  0  0  0  0  0  0  0  0
    0.0000    1.2124    0.0000 O   0  0  0  0  0  0  0  0  0  0  0  0
    0.0000    3.6373    0.0000 N   0  0  0  0  0  0  0  0  0  0  0  0
    2.8000    3.6373    0.0000 C   0  0  0  0  0  0  0  0  0  0  0  0
    2.8000    1.2124    0.0000 C   0  0  0  0  0  0  0  0  0  0  0  0
    4.2000    3.6373    0.0000 C   0  0  0  0  0  0  0  0  0  0  0  0
    2.1000    4.8497    0.0000 N   0  0  0  0  0  0  0  0  0  0  0  0
    4.2000    1.2124    0.0000 C   0  0  0  0  0  0  0  0  0  0  0  0
    4.9000    2.4249    0.0000 C   0  0  0  0  0  0  0  0  0  0  0  0
    2.8000    6.0622    0.0000 O   0  0  0  0  0  0  0  0  0  0  0  0
    0.7000    4.8497    0.0000 O   0  0  0  0  0  0  0  0  0  0  0  0
    4.9000    0.0000    0.0000 Cl  0  0  0  0  0  0  0  0  0  0  0  0
  1  2  1  0  0  0  0 
  1  3  2  0  0  0  0 
  1  4  1  0  0  0  0 
  2  5  1  0  0  0  0 
  2  6  2  0  0  0  0 
  5  7  2  0  0  0  0 
  5  8  1  0  0  0  0 
  9  6  1  0  0  0  0 
  7 10  1  0  0  0  0 
  8 11  2  0  0  0  0 
  8 12  1  0  0  0  0 
 10  9  2  0  0  0  0 
  9 13  1  0  0  0  0 
M  CHG  1   8   1
M  CHG  1  12  -1
M  END
> <Name>
2-Nitro-5-chlorobenzamide

> <Source>
Name2DMolFile

> <Tox>
2.680

> <CAS>
40763-96-0

$$$$

  CDK

  7  6  0  0  0  0  0  0  0  0999 V2000
    0.0000    1.8743    0.0000 Br  0  0  0  0  0  0  0  0  0  0  0  0
    0.5066    1.0131    0.0000 C   0  0  0  0  0  0  0  0  0  0  0  0
    1.5197    1.0131    0.0000 C   0  0  0  0  0  0  0  0  0  0  0  0
    1.5197    1.9756    0.0000 C   0  0  0  0  0  0  0  0  0  0  0  0
    1.5197    0.0000    0.0000 C   0  0  0  0  0  0  0  0  0  0  0  0
    2.5328    1.0131    0.0000 C   0  0  0  0  0  0  0  0  0  0  0  0
    3.0394    1.8743    0.0000 O   0  0  0  0  0  0  0  0  0  0  0  0
  1  2  1  0  0  0  0 
  2  3  1  0  0  0  0 
  3  4  1  0  0  0  0 
  3  5  1  0  0  0  0 
  3  6  1  0  0  0  0 
  6  7  1  0  0  0  0 
M  END
> <Name>
3-Bromo-2,2-dimethyl-1-propanol

> <Source>
NIST2DMolFile

> <Tox>
2.540

> <CAS>
40894-00-6

$$$$

  CDK

 10 10  0  0  0  0  0  0  0  0999 V2000
    2.4897   -0.0687   -0.0003 O   0  0  0  0  0  0  0  0  0  0  0  0
    1.1254   -0.0369    0.0000 C   0  0  0  0  0  0  0  0  0  0  0  0
    0.4594    1.1888   -0.0001 C   0  0  0  0  0  0  0  0  0  0  0  0
    0.3969   -1.2265    0.0002 C   0  0  0  0  0  0  0  0  0  0  0  0
   -0.9350    1.2251    0.0000 C   0  0  0  0  0  0  0  0  0  0  0  0
    1.2216    2.4730    0.0002 C   0  0  0  0  0  0  0  0  0  0  0  0
    1.0571   -2.4747    0.0000 N   0  0  0  0  0  0  0  0  0  0  0  0
   -0.9976   -1.1902    0.0001 C   0  0  0  0  0  0  0  0  0  0  0  0
   -1.6634    0.0356    0.0001 C   0  0  0  0  0  0  0  0  0  0  0  0
   -3.1542    0.0744   -0.0002 C   0  0  0  0  0  0  0  0  0  0  0  0
  1  2  1  0  0  0  0 
  3  2  2  0  0  0  0 
  2  4  1  0  0  0  0 
  3  5  1  0  0  0  0 
  3  6  1  0  0  0  0 
  7  4  1  0  0  0  0 
  4  8  2  0  0  0  0 
  9  5  2  0  0  0  0 
  9  8  1  0  0  0  0 
  9 10  1  0  0  0  0 
M  END
> <Name>
2-amino-4,6-dimethylphenol

> <Source>
Chemidplus3DMolFile

> <Tox>
3.890

> <CAS>
41458-65-5

$$$$

  CDK

 14 14  0  0  0  0  0  0  0  0999 V2000
    2.6570   -2.3040    0.0000 C   0  0  0  0  0  0  0  0  0  0  0  0
    1.9928   -1.1490    0.0000 N   0  0  0  0  0  0  0  0  0  0  0  0
    3.9916   -2.3040    0.0000 C   0  0  0  0  0  0  0  0  0  0  0  0
    1.9928   -3.4530    0.0000 C   0  0  0  0  0  0  0  0  0  0  0  0
    2.6570   -0.0000    0.0000 O   0  0  0  0  0  0  0  0  0  0  0  0
    0.6643   -1.1490    0.0000 O   0  0  0  0  0  0  0  0  0  0  0  0
    4.6558   -3.4530    0.0000 C   0  0  0  0  0  0  0  0  0  0  0  0
    2.6570   -4.6079    0.0000 C   0  0  0  0  0  0  0  0  0  0  0  0
    0.6643   -3.4530    0.0000 C   0  0  0  0  0  0  0  0  0  0  0  0
    5.9843   -3.4530    0.0000 Cl  0  0  0  0  0  0  0  0  0  0  0  0
    3.9916   -4.6079    0.0000 C   0  0  0  0  0  0  0  0  0  0  0  0
    0.0000   -2.3040    0.0000 O   0  0  0  0  0  0  0  0  0  0  0  0
    0.0000   -4.6079    0.0000 O   0  0  0  0  0  0  0  0  0  0  0  0
    0.6643   -5.7569    0.0000 C   0  0  0  0  0  0  0  0  0  0  0  0
  1  2  1  0  0  0  0 
  1  3  2  0  0  0  0 
  1  4  1  0  0  0  0 
  2  5  2  0  0  0  0 
  2  6  1  0  0  0  0 
  3  7  1  0  0  0  0 
  8  4  2  0  0  0  0 
  4  9  1  0  0  0  0 
  7 10  1  0  0  0  0 
  7 11  2  0  0  0  0 
 11  8  1  0  0  0  0 
  9 12  2  0  0  0  0 
  9 13  1  0  0  0  0 
 13 14  1  0  0  0  0 
M  CHG  1   2   1
M  CHG  1   6  -1
M  END
> <Name>
Methyl 4-chloro-2-nitrobenzoate

> <Source>
DSSTox2DMolFile

> <Tox>
3.820

> <CAS>
42087-80-9

$$$$

  CDK

 12 12  0  0  0  0  0  0  0  0999 V2000
    3.3264   -2.3033    0.0000 C   0  0  0  0  0  0  0  0  0  0  0  0
    3.9905   -1.1547    0.0000 C   0  0  0  0  0  0  0  0  0  0  0  0
    3.9905   -3.4580    0.0000 C   0  0  0  0  0  0  0  0  0  0  0  0
    1.9922   -2.3033    0.0000 C   0  0  0  0  0  0  0  0  0  0  0  0
    3.3264   -0.0000    0.0000 O   0  0  0  0  0  0  0  0  0  0  0  0
    5.3186   -3.4580    0.0000 N   0  0  0  0  0  0  0  0  0  0  0  0
    3.3264   -4.6067    0.0000 C   0  0  0  0  0  0  0  0  0  0  0  0
    1.3282   -3.4580    0.0000 C   0  0  0  0  0  0  0  0  0  0  0  0
    5.9827   -4.6067    0.0000 O   0  0  0  0  0  0  0  0  0  0  0  0
    5.9827   -2.3033    0.0000 O   0  0  0  0  0  0  0  0  0  0  0  0
    1.9922   -4.6067    0.0000 C   0  0  0  0  0  0  0  0  0  0  0  0
    0.0000   -3.4580    0.0000 O   0  0  0  0  0  0  0  0  0  0  0  0
  1  2  1  0  0  0  0 
  1  3  2  0  0  0  0 
  1  4  1  0  0  0  0 
  2  5  2  0  0  0  0 
  3  6  1  0  0  0  0 
  3  7  1  0  0  0  0 
  8  4  2  0  0  0  0 
  6  9  2  0  0  0  0 
  6 10  1  0  0  0  0 
  7 11  2  0  0  0  0 
 11  8  1  0  0  0  0 
  8 12  1  0  0  0  0 
M  CHG  1   6   1
M  CHG  1  10  -1
M  END
> <Name>
Benzaldehyde, 5-hydroxy-2-nitro-

> <Source>
DSSTox2DMolFile

> <Tox>
3.330

> <CAS>
42454-06-8

$$$$

  CDK

 11 11  0  0  0  0  0  0  0  0999 V2000
    4.3270    1.4921    0.0000 C   0  0  0  0  0  0  0  0  0  0  0  0
    3.4815    1.9894    0.0000 O   0  0  0  0  0  0  0  0  0  0  0  0
    5.1725    2.0392    0.0000 C   0  0  0  0  0  0  0  0  0  0  0  0
    2.5862    1.4921    0.0000 C   0  0  0  0  0  0  0  0  0  0  0  0
    6.0677    1.4921    0.0000 O   0  0  0  0  0  0  0  0  0  0  0  0
    1.7407    1.9894    0.0000 C   0  0  0  0  0  0  0  0  0  0  0  0
    2.5862    0.4974    0.0000 C   0  0  0  0  0  0  0  0  0  0  0  0
    0.8952    1.4423    0.0000 C   0  0  0  0  0  0  0  0  0  0  0  0
    1.7407    0.0000    0.0000 C   0  0  0  0  0  0  0  0  0  0  0  0
    0.0000    1.9894    0.0000 O   0  0  0  0  0  0  0  0  0  0  0  0
    0.8952    0.4974    0.0000 C   0  0  0  0  0  0  0  0  0  0  0  0
  1  2  1  0  0  0  0 
  1  3  1  0  0  0  0 
  2  4  1  0  0  0  0 
  3  5  1  0  0  0  0 
  6  4  2  0  0  0  0 
  4  7  1  0  0  0  0 
  8  6  1  0  0  0  0 
  7  9  2  0  0  0  0 
  8 10  1  0  0  0  0 
 11  8  2  0  0  0  0 
  9 11  1  0  0  0  0 
M  END
> <Name>
Phenol, 3-(2-hydroxyethoxy)-

> <Source>
NIST2DMolFile

> <Tox>
2.130

> <CAS>
49650-88-6

$$$$

  CDK

  8  8  0  0  0  0  0  0  0  0999 V2000
    0.3486    0.0835    0.0000 C   0  0  0  0  0  0  0  0  0  0  0  0
    0.2624   -0.7370    0.0000 C   0  0  0  0  0  0  0  0  0  0  0  0
   -0.4051    0.4191    0.0000 S   0  0  0  0  0  0  0  0  0  0  0  0
    1.0631    0.4960    0.0000 C   0  0  0  0  0  0  0  0  0  0  0  0
   -0.5446   -0.9085    0.0000 C   0  0  0  0  0  0  0  0  0  0  0  0
   -0.9571   -0.1940    0.0000 C   0  0  0  0  0  0  0  0  0  0  0  0
    1.7776    0.9085    0.0000 N   0  0  0  0  0  0  0  0  0  0  0  0
   -1.7776   -0.1078    0.0000 Cl  0  0  0  0  0  0  0  0  0  0  0  0
  1  2  2  0  0  0  0 
  1  3  1  0  0  0  0 
  1  4  1  0  0  0  0 
  2  5  1  0  0  0  0 
  6  3  1  0  0  0  0 
  4  7  3  0  0  0  0 
  5  6  2  0  0  0  0 
  6  8  1  0  0  0  0 
M  END
> <Name>
5-chlorothiophene-2-carbonitrile

> <Source>
Name2DMolFile

> <Tox>
2.920

> <CAS>
50478-16-5

$$$$

  CDK

 14 14  0  0  0  0  0  0  0  0999 V2000
    0.0000    0.0000    0.0000 O   0  0  0  0  0  0  0  0  0  0  0  0
    0.4000    1.0800    0.4200 N   0  0  0  0  0  0  0  0  0  0  0  0
   -0.3000    2.0200    0.7600 O   0  0  0  0  0  0  0  0  0  0  0  0
    1.7800    1.2600    0.5000 C   0  0  0  0  0  0  0  0  0  0  0  0
    2.3000    2.5600    0.4200 C   0  0  0  0  0  0  0  0  0  0  0  0
    2.6200    0.1600    0.6800 C   0  0  0  0  0  0  0  0  0  0  0  0
    3.7000    2.7400    0.5200 C   0  0  0  0  0  0  0  0  0  0  0  0
    4.0200    0.3600    0.7800 C   0  0  0  0  0  0  0  0  0  0  0  0
    2.0600   -1.2200    0.7800 C   0  0  0  0  0  0  0  0  0  0  0  0
    4.2000    4.0400    0.4200 N   0  0  0  0  0  0  0  0  0  0  0  0
    4.5600    1.6400    0.6800 C   0  0  0  0  0  0  0  0  0  0  0  0
    5.4000    4.1800    0.5600 O   0  0  0  0  0  0  0  0  0  0  0  0
    3.4000    4.9600    0.2000 O   0  0  0  0  0  0  0  0  0  0  0  0
    6.2600    1.8600    0.8000 Cl  0  0  0  0  0  0  0  0  0  0  0  0
  1  2  1  0  0  0  0 
  2  3  2  0  0  0  0 
  2  4  1  0  0  0  0 
  4  5  2  0  0  0  0 
  4  6  1  0  0  0  0 
  5  7  1  0  0  0  0 
  8  6  2  0  0  0  0 
  6  9  1  0  0  0  0 
  7 10  1  0  0  0  0 
  7 11  2  0  0  0  0 
 11  8  1  0  0  0  0 
 10 12  2  0  0  0  0 
 10 13  1  0  0  0  0 
 11 14  1  0  0  0  0 
M  CHG  1   1  -1
M  CHG  1   2   1
M  CHG  1  10   1
M  CHG  1  13  -1
M  END
> <Name>
Toluene,5-chloro-2,4-dinitro- (6CI,7CI)

> <Source>
NIH3DMolFile

> <Tox>
5.330

> <CAS>
51676-74-5

$$$$

  CDK

 11 10  0  0  0  0  0  0  0  0999 V2000
    0.0000    2.5095    0.0000 C   0  0  0  0  0  0  0  0  0  0  0  0
    0.8532    3.0114    0.0000 C   0  0  0  0  0  0  0  0  0  0  0  0
    1.7064    2.5095    0.0000 C   0  0  0  0  0  0  0  0  0  0  0  0
    2.5597    3.0114    0.0000 C   0  0  0  0  0  0  0  0  0  0  0  0
    3.4129    2.5095    0.0000 C   0  0  0  0  0  0  0  0  0  0  0  0
    4.3163    3.0114    0.0000 C   0  0  0  0  0  0  0  0  0  0  0  0
    5.1695    2.5095    0.0000 C   0  0  0  0  0  0  0  0  0  0  0  0
    6.0228    2.0076    0.0000 C   0  0  0  0  0  0  0  0  0  0  0  0
    6.9262    1.5057    0.0000 C   0  0  0  0  0  0  0  0  0  0  0  0
    6.9262    0.5019    0.0000 C   0  0  0  0  0  0  0  0  0  0  0  0
    7.7794    0.0000    0.0000 O   0  0  0  0  0  0  0  0  0  0  0  0
  1  2  1  0  0  0  0 
  2  3  1  0  0  0  0 
  3  4  1  0  0  0  0 
  4  5  1  0  0  0  0 
  5  6  1  0  0  0  0 
  6  7  1  0  0  0  0 
  7  8  3  0  0  0  0 
  8  9  1  0  0  0  0 
  9 10  1  0  0  0  0 
 10 11  1  0  0  0  0 
M  END
> <Name>
3-Decyn-1-ol

> <Source>
NIST2DMolFile

> <Tox>
4.127

> <CAS>
51721-39-2

$$$$

  CDK

 12 12  0  0  0  0  0  0  0  0999 V2000
    2.6812    0.5059    0.0000 C   0  0  0  0  0  0  0  0  0  0  0  0
    2.6812    1.4671    0.0000 C   0  0  0  0  0  0  0  0  0  0  0  0
    1.7706    0.0000    0.0000 C   0  0  0  0  0  0  0  0  0  0  0  0
    1.7706    1.9730    0.0000 C   0  0  0  0  0  0  0  0  0  0  0  0
    3.4907    1.9730    0.0000 C   0  0  0  0  0  0  0  0  0  0  0  0
    0.9106    0.5059    0.0000 C   0  0  0  0  0  0  0  0  0  0  0  0
    0.9106    1.4671    0.0000 C   0  0  0  0  0  0  0  0  0  0  0  0
    4.4013    1.5177    0.0000 O   0  0  0  0  0  0  0  0  0  0  0  0
    3.4907    2.9848    0.0000 O   0  0  0  0  0  0  0  0  0  0  0  0
    0.0000    0.0000    0.0000 I   0  0  0  0  0  0  0  0  0  0  0  0
    5.2107    2.0236    0.0000 C   0  0  0  0  0  0  0  0  0  0  0  0
    6.1213    1.5683    0.0000 C   0  0  0  0  0  0  0  0  0  0  0  0
  2  1  2  0  0  0  0 
  1  3  1  0  0  0  0 
  4  2  1  0  0  0  0 
  2  5  1  0  0  0  0 
  3  6  2  0  0  0  0 
  7  4  2  0  0  0  0 
  5  8  1  0  0  0  0 
  5  9  2  0  0  0  0 
  6  7  1  0  0  0  0 
  6 10  1  0  0  0  0 
  8 11  1  0  0  0  0 
 11 12  1  0  0  0  0 
M  END
> <Name>
Ethyl 4-iodobenzoate

> <Source>
NIST2DMolFile

> <Tox>
4.530

> <CAS>
51934-41-9

$$$$

  CDK

 12 12  0  0  0  0  0  0  0  0999 V2000
    0.2335    1.0216    0.0409 O   0  0  0  0  0  0  0  0  0  0  0  0
   -1.0059    0.4249   -0.3256 C   0  0  0  0  0  0  0  0  0  0  0  0
    1.3590    0.3230   -0.3097 C   0  0  0  0  0  0  0  0  0  0  0  0
   -1.1166   -0.9598    0.3112 C   0  0  0  0  0  0  0  0  0  0  0  0
   -2.1583    1.3336    0.0995 C   0  0  0  0  0  0  0  0  0  0  0  0
    1.4635   -0.4134   -1.2814 O   0  0  0  0  0  0  0  0  0  0  0  0
    2.4493    0.6080    0.6937 C   0  0  0  0  0  0  0  0  0  0  0  0
   -2.4709   -1.6013    0.0276 C   0  0  0  0  0  0  0  0  0  0  0  0
   -3.5127    0.6923   -0.1841 C   0  0  0  0  0  0  0  0  0  0  0  0
    3.6968   -0.0922    0.3663 C   0  0  0  0  0  0  0  0  0  0  0  0
   -3.6227   -0.6923    0.4503 C   0  0  0  0  0  0  0  0  0  0  0  0
    4.6849   -0.6445    0.1112 N   0  0  0  0  0  0  0  0  0  0  0  0
  1  2  1  0  0  0  0 
  1  3  1  0  0  0  0 
  2  4  1  0  0  0  0 
  2  5  1  0  0  0  0 
  6  3  2  0  0  0  0 
  3  7  1  0  0  0  0 
  4  8  1  0  0  0  0 
  5  9  1  0  0  0  0 
  7 10  1  0  0  0  0 
  8 11  1  0  0  0  0 
  9 11  1  0  0  0  0 
 12 10  3  0  0  0  0 
M  END
> <Name>
cyclohexyl 2-cyanoacetate

> <Source>
Chemidplus3DMolFile

> <Tox>
2.910

> <CAS>
52688-11-6

$$$$

  CDK

  9  8  0  0  0  0  0  0  0  0999 V2000
    5.9562    1.1200    0.0000 C   0  0  0  0  0  0  0  0  0  0  0  0
    5.0399    0.6109    0.0000 N   0  0  0  0  0  0  0  0  0  0  0  0
    6.8216    1.6800    0.0000 S   0  0  0  0  0  0  0  0  0  0  0  0
    4.1235    0.0509    0.0000 C   0  0  0  0  0  0  0  0  0  0  0  0
    3.4108    0.5091    0.0000 C   0  0  0  0  0  0  0  0  0  0  0  0
    2.5454    0.0000    0.0000 C   0  0  0  0  0  0  0  0  0  0  0  0
    1.6800    0.5091    0.0000 N   0  0  0  0  0  0  0  0  0  0  0  0
    0.7636    1.0691    0.0000 C   0  0  0  0  0  0  0  0  0  0  0  0
    0.0000    1.5781    0.0000 S   0  0  0  0  0  0  0  0  0  0  0  0
  1  2  2  0  0  0  0 
  1  3  2  0  0  0  0 
  2  4  1  0  0  0  0 
  5  4  1  0  0  0  0 
  5  6  1  0  0  0  0 
  6  7  1  0  0  0  0 
  7  8  2  0  0  0  0 
  8  9  2  0  0  0  0 
M  END
> <Name>
1,3-propylene diisothiocyanate

> <Source>
NIST2DMolFile

> <Tox>
5.720

> <CAS>
52714-52-0

$$$$

  CDK

  9  9  0  0  0  0  0  0  0  0999 V2000
    1.8165   -0.9372    4.0416 O   0  0  0  0  0  0  0  0  0  0  0  0
    1.8509   -0.9767    2.6799 C   0  0  0  0  0  0  0  0  0  0  0  0
    2.9180   -1.5734    2.0082 C   0  0  0  0  0  0  0  0  0  0  0  0
    0.8008   -0.4105    1.9570 C   0  0  0  0  0  0  0  0  0  0  0  0
    2.9348   -1.6038    0.6137 C   0  0  0  0  0  0  0  0  0  0  0  0
    4.0397   -2.1778    2.7922 C   0  0  0  0  0  0  0  0  0  0  0  0
    0.8176   -0.4410    0.5626 C   0  0  0  0  0  0  0  0  0  0  0  0
    4.0061   -2.2032   -0.0846 N   0  0  0  0  0  0  0  0  0  0  0  0
    1.8846   -1.0376   -0.1090 C   0  0  0  0  0  0  0  0  0  0  0  0
  1  2  1  0  0  0  0 
  3  2  1  0  0  0  0 
  2  4  2  0  0  0  0 
  3  5  2  0  0  0  0 
  3  6  1  0  0  0  0 
  4  7  1  0  0  0  0 
  8  5  1  0  0  0  0 
  5  9  1  0  0  0  0 
  9  7  2  0  0  0  0 
M  END
> <Name>
2-Amino-o-cresol

> <Source>
Chemidplus3DMolFile

> <Tox>
2.450

> <CAS>
53222-92-7

$$$$

  CDK

  9  8  0  0  0  0  0  0  0  0999 V2000
    0.0000    0.5065    0.0000 C   0  0  0  0  0  0  0  0  0  0  0  0
    0.8610    0.0000    0.0000 C   0  0  0  0  0  0  0  0  0  0  0  0
    1.7726    0.5065    0.0000 C   0  0  0  0  0  0  0  0  0  0  0  0
    2.5830    0.9623    0.0000 C   0  0  0  0  0  0  0  0  0  0  0  0
    3.4440    1.5194    0.0000 C   0  0  0  0  0  0  0  0  0  0  0  0
    4.3556    1.0129    0.0000 C   0  0  0  0  0  0  0  0  0  0  0  0
    5.2166    1.5194    0.0000 C   0  0  0  0  0  0  0  0  0  0  0  0
    4.3556    0.0506    0.0000 O   0  0  0  0  0  0  0  0  0  0  0  0
    6.0776    1.0129    0.0000 C   0  0  0  0  0  0  0  0  0  0  0  0
  1  2  1  0  0  0  0 
  2  3  1  0  0  0  0 
  3  4  3  0  0  0  0 
  4  5  1  0  0  0  0 
  5  6  1  0  0  0  0 
  6  7  1  0  0  0  0 
  6  8  1  0  0  0  0 
  7  9  1  0  0  0  0 
M  END
> <Name>
5-Octyn-3-ol

> <Source>
NIST2DMolFile

> <Tox>
2.624

> <CAS>
53723-18-5

$$$$

  CDK

 10  9  0  0  0  0  0  0  0  0999 V2000
    0.0000    0.0000    0.0000 C   0  0  0  0  0  0  0  0  0  0  0  0
    0.8611    0.5065    0.0000 C   0  0  0  0  0  0  0  0  0  0  0  0
    1.7222    0.0000    0.0000 C   0  0  0  0  0  0  0  0  0  0  0  0
    2.6339    0.5065    0.0000 C   0  0  0  0  0  0  0  0  0  0  0  0
    3.4444    0.9624    0.0000 C   0  0  0  0  0  0  0  0  0  0  0  0
    4.3055    1.5196    0.0000 C   0  0  0  0  0  0  0  0  0  0  0  0
    5.2172    1.0131    0.0000 C   0  0  0  0  0  0  0  0  0  0  0  0
    6.0783    1.5196    0.0000 C   0  0  0  0  0  0  0  0  0  0  0  0
    5.2172    0.0507    0.0000 O   0  0  0  0  0  0  0  0  0  0  0  0
    6.9394    1.0131    0.0000 C   0  0  0  0  0  0  0  0  0  0  0  0
  1  2  1  0  0  0  0 
  2  3  1  0  0  0  0 
  3  4  1  0  0  0  0 
  4  5  3  0  0  0  0 
  5  6  1  0  0  0  0 
  6  7  1  0  0  0  0 
  7  8  1  0  0  0  0 
  7  9  1  0  0  0  0 
  8 10  1  0  0  0  0 
M  END
> <Name>
5-Nonyn-3-ol

> <Source>
NIST2DMolFile

> <Tox>
2.958

> <CAS>
53723-19-6

$$$$

  CDK

  8  7  0  0  0  0  0  0  0  0999 V2000
    2.6096    1.5056    0.0000 C   0  0  0  0  0  0  0  0  0  0  0  0
    1.7063    1.0037    0.0000 C   0  0  0  0  0  0  0  0  0  0  0  0
    3.4628    1.0037    0.0000 O   0  0  0  0  0  0  0  0  0  0  0  0
    2.6096    2.5093    0.0000 O   0  0  0  0  0  0  0  0  0  0  0  0
    0.8531    1.5056    0.0000 C   0  0  0  0  0  0  0  0  0  0  0  0
    1.7063    0.0000    0.0000 C   0  0  0  0  0  0  0  0  0  0  0  0
    4.3158    1.5056    0.0000 C   0  0  0  0  0  0  0  0  0  0  0  0
    0.0000    1.0037    0.0000 C   0  0  0  0  0  0  0  0  0  0  0  0
  1  2  1  0  0  0  0 
  1  3  1  0  0  0  0 
  1  4  2  0  0  0  0 
  2  5  1  0  0  0  0 
  2  6  1  0  0  0  0 
  3  7  1  0  0  0  0 
  5  8  1  0  0  0  0 
M  END
> <Name>
(+/-)-methyl- 2-methylbutyrate

> <Source>
NIST2DMolFile

> <Tox>
1.835

> <CAS>
53955-81-0

$$$$

  CDK

 11 11  0  0  0  0  0  0  0  0999 V2000
    1.2127    2.0988    0.0000 C   0  0  0  0  0  0  0  0  0  0  0  0
    1.2127    0.6996    0.0000 C   0  0  0  0  0  0  0  0  0  0  0  0
    2.4253    2.7984    0.0000 C   0  0  0  0  0  0  0  0  0  0  0  0
    0.0000    2.7984    0.0000 Cl  0  0  0  0  0  0  0  0  0  0  0  0
    2.4253    0.0000    0.0000 C   0  0  0  0  0  0  0  0  0  0  0  0
    3.6380    2.0988    0.0000 C   0  0  0  0  0  0  0  0  0  0  0  0
    2.4253    4.1977    0.0000 Cl  0  0  0  0  0  0  0  0  0  0  0  0
    3.6380    0.6996    0.0000 C   0  0  0  0  0  0  0  0  0  0  0  0
    4.8506    2.7984    0.0000 Cl  0  0  0  0  0  0  0  0  0  0  0  0
    4.8506    0.0000    0.0000 O   0  0  0  0  0  0  0  0  0  0  0  0
    6.0633    0.6996    0.0000 C   0  0  0  0  0  0  0  0  0  0  0  0
  1  2  2  0  0  0  0 
  1  3  1  0  0  0  0 
  1  4  1  0  0  0  0 
  2  5  1  0  0  0  0 
  6  3  2  0  0  0  0 
  3  7  1  0  0  0  0 
  5  8  2  0  0  0  0 
  8  6  1  0  0  0  0 
  6  9  1  0  0  0  0 
  8 10  1  0  0  0  0 
 10 11  1  0  0  0  0 
M  END
> <Name>
2,3,4-Trichloroanisole

> <Source>
IndexNet2DMolFile

> <Tox>
4.640

> <CAS>
54135-80-7

$$$$

  CDK

 15 14  0  0  0  0  0  0  0  0999 V2000
    0.9998    3.4658    0.0000 C   0  0  0  0  0  0  0  0  0  0  0  0
    0.0000    3.4658    0.0000 O   0  0  0  0  0  0  0  0  0  0  0  0
    1.4996    4.3323    0.0000 C   0  0  0  0  0  0  0  0  0  0  0  0
    2.4994    4.3323    0.0000 C   0  0  0  0  0  0  0  0  0  0  0  0
    3.4992    4.3323    0.0000 C   0  0  0  0  0  0  0  0  0  0  0  0
    4.4989    4.3323    0.0000 C   0  0  0  0  0  0  0  0  0  0  0  0
    4.9988    3.4658    0.0000 C   0  0  0  0  0  0  0  0  0  0  0  0
    5.9985    3.4658    0.0000 C   0  0  0  0  0  0  0  0  0  0  0  0
    6.4984    2.5994    0.0000 C   0  0  0  0  0  0  0  0  0  0  0  0
    7.4982    2.5994    0.0000 C   0  0  0  0  0  0  0  0  0  0  0  0
    7.9981    1.7329    0.0000 C   0  0  0  0  0  0  0  0  0  0  0  0
    8.9978    1.7329    0.0000 C   0  0  0  0  0  0  0  0  0  0  0  0
    9.4977    0.8664    0.0000 C   0  0  0  0  0  0  0  0  0  0  0  0
   10.4975    0.8664    0.0000 C   0  0  0  0  0  0  0  0  0  0  0  0
   10.9973    0.0000    0.0000 C   0  0  0  0  0  0  0  0  0  0  0  0
  1  2  1  0  0  0  0 
  1  3  1  0  0  0  0 
  3  4  1  0  0  0  0 
  4  5  3  0  0  0  0 
  5  6  1  0  0  0  0 
  6  7  1  0  0  0  0 
  7  8  1  0  0  0  0 
  8  9  1  0  0  0  0 
  9 10  1  0  0  0  0 
 10 11  1  0  0  0  0 
 11 12  1  0  0  0  0 
 12 13  1  0  0  0  0 
 13 14  1  0  0  0  0 
 14 15  1  0  0  0  0 
M  END
> <Name>
3-tetradecyn-1-ol

> <Source>
NIST2DMolFile

> <Tox>
5.377

> <CAS>
55182-74-6

$$$$

  CDK

  9  8  0  0  0  0  0  0  0  0999 V2000
    1.4204    0.3793    0.0125 O   0  0  0  0  0  0  0  0  0  0  0  0
    2.8425    0.2190   -0.0094 C   0  0  0  0  0  0  0  0  0  0  0  0
    0.7034   -0.7756   -0.0103 C   0  0  0  0  0  0  0  0  0  0  0  0
    3.4932    1.5855    0.0200 C   0  0  0  0  0  0  0  0  0  0  0  0
    1.1388   -1.9168   -0.0469 O   0  0  0  0  0  0  0  0  0  0  0  0
   -0.7139   -0.5260    0.0149 C   0  0  0  0  0  0  0  0  0  0  0  0
   -1.8965   -0.3176    0.0355 C   0  0  0  0  0  0  0  0  0  0  0  0
   -3.3424   -0.0651    0.0607 C   0  0  0  0  0  0  0  0  0  0  0  0
   -3.6457    1.4173   -0.0770 C   0  0  0  0  0  0  0  0  0  0  0  0
  1  2  1  0  0  0  0 
  1  3  1  0  0  0  0 
  2  4  1  0  0  0  0 
  5  3  2  0  0  0  0 
  3  6  1  0  0  0  0 
  7  6  3  0  0  0  0 
  8  7  1  0  0  0  0 
  8  9  1  0  0  0  0 
M  END
> <Name>
ethyl pent-2-ynoate

> <Source>
Chemidplus3DMolFile

> <Tox>
3.820

> <CAS>
55314-57-3

$$$$

  CDK

 15 16  0  0  0  0  0  0  0  0999 V2000
    3.5105    0.8525    0.0000 C   0  0  0  0  0  0  0  0  0  0  0  0
    4.5135    0.8525    0.0000 C   0  0  0  0  0  0  0  0  0  0  0  0
    3.0591    1.7552    0.0000 C   0  0  0  0  0  0  0  0  0  0  0  0
    4.9648    1.7552    0.0000 C   0  0  0  0  0  0  0  0  0  0  0  0
    3.5105    2.6078    0.0000 C   0  0  0  0  0  0  0  0  0  0  0  0
    2.0561    1.7552    0.0000 C   0  0  0  0  0  0  0  0  0  0  0  0
    4.5135    2.6078    0.0000 C   0  0  0  0  0  0  0  0  0  0  0  0
    1.5546    2.6078    0.0000 C   0  0  0  0  0  0  0  0  0  0  0  0
    1.5546    0.8525    0.0000 C   0  0  0  0  0  0  0  0  0  0  0  0
    0.5516    2.6078    0.0000 C   0  0  0  0  0  0  0  0  0  0  0  0
    0.5516    0.8525    0.0000 C   0  0  0  0  0  0  0  0  0  0  0  0
    2.0561    0.0000    0.0000 O   0  0  0  0  0  0  0  0  0  0  0  0
    0.0501    1.7552    0.0000 C   0  0  0  0  0  0  0  0  0  0  0  0
    0.0501    3.4603    0.0000 Br  0  0  0  0  0  0  0  0  0  0  0  0
    0.0000    0.0000    0.0000 Br  0  0  0  0  0  0  0  0  0  0  0  0
  1  2  2  0  0  0  0 
  3  1  1  0  0  0  0 
  2  4  1  0  0  0  0 
  5  3  2  0  0  0  0 
  3  6  1  0  0  0  0 
  4  7  2  0  0  0  0 
  7  5  1  0  0  0  0 
  6  8  2  0  0  0  0 
  9  6  1  0  0  0  0 
  8 10  1  0  0  0  0 
 11  9  2  0  0  0  0 
  9 12  1  0  0  0  0 
 10 13  2  0  0  0  0 
 10 14  1  0  0  0  0 
 13 11  1  0  0  0  0 
 11 15  1  0  0  0  0 
M  END
> <Name>
Phenol,2,4-dibromo-6-phenyl- (7CI)

> <Source>
NIST2DMolFile

> <Tox>
5.210

> <CAS>
55815-20-8

$$$$

  CDK

  9  8  0  0  0  0  0  0  0  0999 V2000
   -1.4280   -0.4709    0.0574 O   0  0  0  0  0  0  0  0  0  0  0  0
   -0.3280    0.2793    0.3654 C   0  0  0  0  0  0  0  0  0  0  0  0
   -2.6548    0.2560   -0.0665 C   0  0  0  0  0  0  0  0  0  0  0  0
   -0.3124    1.4902    0.5383 O   0  0  0  0  0  0  0  0  0  0  0  0
    0.8753   -0.6355    0.4616 C   0  0  0  0  0  0  0  0  0  0  0  0
   -3.7685   -0.7109   -0.4074 C   0  0  0  0  0  0  0  0  0  0  0  0
    2.1805    0.0786    0.1075 C   0  0  0  0  0  0  0  0  0  0  0  0
    2.0727    0.5928   -1.2185 O   0  0  0  0  0  0  0  0  0  0  0  0
    3.3631   -0.8796    0.1622 C   0  0  0  0  0  0  0  0  0  0  0  0
  1  2  1  0  0  0  0 
  1  3  1  0  0  0  0 
  4  2  2  0  0  0  0 
  5  2  1  0  0  0  0 
  3  6  1  0  0  0  0 
  7  5  1  0  0  0  0 
  8  7  1  0  0  0  0 
  7  9  1  0  0  0  0 
M  END
> <Name>
ethyl 3-oxidanylbutanoate

> <Source>
Chemidplus3DMolFile

> <Tox>
1.470

> <CAS>
56816-01-4

$$$$

  CDK

 11 11  0  0  0  0  0  0  0  0999 V2000
   -1.6183   -2.2456   -0.1091 Cl  0  0  0  0  0  0  0  0  0  0  0  0
   -0.4559   -0.9567   -0.0744 C   0  0  0  0  0  0  0  0  0  0  0  0
   -0.8977    0.3628   -0.1715 C   0  0  0  0  0  0  0  0  0  0  0  0
    0.9067   -1.2288    0.0487 C   0  0  0  0  0  0  0  0  0  0  0  0
    0.0232    1.4104   -0.1450 C   0  0  0  0  0  0  0  0  0  0  0  0
   -2.3097    0.7046   -0.3021 C   0  0  0  0  0  0  0  0  0  0  0  0
    1.5240   -2.8400    0.1728 Cl  0  0  0  0  0  0  0  0  0  0  0  0
    1.8275   -0.1812    0.0749 C   0  0  0  0  0  0  0  0  0  0  0  0
    1.3858    1.1385   -0.0216 C   0  0  0  0  0  0  0  0  0  0  0  0
   -2.9075    1.4049    0.5162 O   0  0  0  0  0  0  0  0  0  0  0  0
    2.5218    2.4311    0.0110 Cl  0  0  0  0  0  0  0  0  0  0  0  0
  1  2  1  0  0  0  0 
  3  2  2  0  0  0  0 
  2  4  1  0  0  0  0 
  3  5  1  0  0  0  0 
  3  6  1  0  0  0  0 
  7  4  1  0  0  0  0 
  4  8  2  0  0  0  0 
  5  9  2  0  0  0  0 
 10  6  2  0  0  0  0 
  9  8  1  0  0  0  0 
 11  9  1  0  0  0  0 
M  END
> <Name>
2,3,5-trichlorobenzaldehyde

> <Source>
Chemidplus3DMolFile

> <Tox>
4.720

> <CAS>
56961-75-2

$$$$

  CDK

  9  9  0  0  0  0  0  0  0  0999 V2000
    2.4934    0.8651    0.0000 C   0  0  0  0  0  0  0  0  0  0  0  0
    1.5266    0.8651    0.0000 C   0  0  0  0  0  0  0  0  0  0  0  0
    3.0023    1.7301    0.0000 C   0  0  0  0  0  0  0  0  0  0  0  0
    3.0023    0.0000    0.0000 Cl  0  0  0  0  0  0  0  0  0  0  0  0
    1.0177    1.7301    0.0000 C   0  0  0  0  0  0  0  0  0  0  0  0
    0.9668    0.0000    0.0000 Cl  0  0  0  0  0  0  0  0  0  0  0  0
    2.4934    2.5952    0.0000 C   0  0  0  0  0  0  0  0  0  0  0  0
    1.5266    2.5952    0.0000 C   0  0  0  0  0  0  0  0  0  0  0  0
    0.0000    1.7301    0.0000 Br  0  0  0  0  0  0  0  0  0  0  0  0
  2  1  2  0  0  0  0 
  1  3  1  0  0  0  0 
  1  4  1  0  0  0  0 
  5  2  1  0  0  0  0 
  2  6  1  0  0  0  0 
  3  7  2  0  0  0  0 
  8  5  2  0  0  0  0 
  5  9  1  0  0  0  0 
  7  8  1  0  0  0  0 
M  END
> <Name>
1-bromo-2,3-dichlorobenzene

> <Source>
NIST2DMolFile

> <Tox>
4.300

> <CAS>
56961-77-4

$$$$

  CDK

 10 10  0  0  0  0  0  0  0  0999 V2000
    2.9877    0.9272    0.0000 C   0  0  0  0  0  0  0  0  0  0  0  0
    2.0090    0.9272    0.0000 C   0  0  0  0  0  0  0  0  0  0  0  0
    3.5028    1.7514    0.0000 C   0  0  0  0  0  0  0  0  0  0  0  0
    1.4938    1.7514    0.0000 C   0  0  0  0  0  0  0  0  0  0  0  0
    1.4938    0.0000    0.0000 Cl  0  0  0  0  0  0  0  0  0  0  0  0
    2.9877    2.6271    0.0000 C   0  0  0  0  0  0  0  0  0  0  0  0
    4.5330    1.7514    0.0000 O   0  0  0  0  0  0  0  0  0  0  0  0
    2.0090    2.6271    0.0000 C   0  0  0  0  0  0  0  0  0  0  0  0
    0.4636    1.7514    0.0000 C   0  0  0  0  0  0  0  0  0  0  0  0
    0.0000    0.9272    0.0000 O   0  0  0  0  0  0  0  0  0  0  0  0
  2  1  2  0  0  0  0 
  1  3  1  0  0  0  0 
  4  2  1  0  0  0  0 
  2  5  1  0  0  0  0 
  3  6  2  0  0  0  0 
  3  7  1  0  0  0  0 
  8  4  2  0  0  0  0 
  4  9  1  0  0  0  0 
  6  8  1  0  0  0  0 
  9 10  2  0  0  0  0 
M  END
> <Name>
2-Chloro-4-hydroxybenzaldehyde

> <Source>
NIST2DMolFile

> <Tox>
3.890

> <CAS>
56962-11-9

$$$$

  CDK

 11 11  0  0  0  0  0  0  0  0999 V2000
    2.4132    1.3706    0.5344 S   0  0  0  0  0  0  0  0  0  0  0  0
    1.3436    0.3350   -0.2840 C   0  0  0  0  0  0  0  0  0  0  0  0
    3.6689    0.2121    0.4209 C   0  0  0  0  0  0  0  0  0  0  0  0
   -0.0668    0.8033   -0.5341 C   0  0  0  0  0  0  0  0  0  0  0  0
    1.8982   -0.8549   -0.6413 C   0  0  0  0  0  0  0  0  0  0  0  0
    3.2603   -0.9310   -0.2302 C   0  0  0  0  0  0  0  0  0  0  0  0
   -1.1066   -0.1054    0.0774 C   0  0  0  0  0  0  0  0  0  0  0  0
   -2.3480    0.3776   -0.2288 O   0  0  0  0  0  0  0  0  0  0  0  0
   -0.8721   -1.1077    0.7389 O   0  0  0  0  0  0  0  0  0  0  0  0
   -3.4481   -0.3802    0.2851 C   0  0  0  0  0  0  0  0  0  0  0  0
   -4.7425    0.2806   -0.1384 C   0  0  0  0  0  0  0  0  0  0  0  0
  1  2  1  0  0  0  0 
  1  3  1  0  0  0  0 
  4  2  1  0  0  0  0 
  2  5  2  0  0  0  0 
  6  3  2  0  0  0  0 
  4  7  1  0  0  0  0 
  5  6  1  0  0  0  0 
  8  7  1  0  0  0  0 
  9  7  2  0  0  0  0 
  8 10  1  0  0  0  0 
 10 11  1  0  0  0  0 
M  END
> <Name>
ethyl 2-thiophen-2-ylethanoate

> <Source>
Chemidplus3DMolFile

> <Tox>
3.270

> <CAS>
57382-97-5

$$$$

  CDK

 15 14  0  0  0  0  0  0  0  0999 V2000
   -4.1356    0.3310    0.1790 O   0  0  0  0  0  0  0  0  0  0  0  0
   -3.0143   -0.4335    0.0445 C   0  0  0  0  0  0  0  0  0  0  0  0
   -5.3754   -0.3829    0.1464 C   0  0  0  0  0  0  0  0  0  0  0  0
   -2.9793   -1.6489   -0.0982 O   0  0  0  0  0  0  0  0  0  0  0  0
   -1.7864    0.4371    0.1193 C   0  0  0  0  0  0  0  0  0  0  0  0
   -6.4946    0.5919    0.3053 C   0  0  0  0  0  0  0  0  0  0  0  0
   -0.5211   -0.4076    0.0315 C   0  0  0  0  0  0  0  0  0  0  0  0
   -7.4614    0.7736   -0.6010 C   0  0  0  0  0  0  0  0  0  0  0  0
    0.7337    0.4649    0.0645 C   0  0  0  0  0  0  0  0  0  0  0  0
    2.0028   -0.3805   -0.0571 C   0  0  0  0  0  0  0  0  0  0  0  0
    3.2600    0.4899    0.0099 C   0  0  0  0  0  0  0  0  0  0  0  0
    4.5281   -0.3618   -0.0798 C   0  0  0  0  0  0  0  0  0  0  0  0
    5.8191    0.4566    0.0136 C   0  0  0  0  0  0  0  0  0  0  0  0
    7.0863   -0.3969   -0.0509 C   0  0  0  0  0  0  0  0  0  0  0  0
    8.3380    0.4671   -0.0271 C   0  0  0  0  0  0  0  0  0  0  0  0
  1  2  1  0  0  0  0 
  1  3  1  0  0  0  0 
  4  2  2  0  0  0  0 
  5  2  1  0  0  0  0 
  3  6  1  0  0  0  0 
  7  5  1  0  0  0  0 
  6  8  2  0  0  0  0 
  9  7  1  0  0  0  0 
 10  9  1  0  0  0  0 
 11 10  1  0  0  0  0 
 11 12  1  0  0  0  0 
 12 13  1  0  0  0  0 
 13 14  1  0  0  0  0 
 14 15  1  0  0  0  0 
M  END
> <Name>
prop-2-enyl decanoate

> <Source>
Chemidplus3DMolFile

> <Tox>
3.480

> <CAS>
57856-81-2

$$$$

  CDK

  9  8  0  0  0  0  0  0  0  0999 V2000
    0.0000    0.0000    0.0000 C   0  0  0  0  0  0  0  0  0  0  0  0
    0.8542    0.5025    0.0000 C   0  0  0  0  0  0  0  0  0  0  0  0
    1.7085    0.0000    0.0000 C   0  0  0  0  0  0  0  0  0  0  0  0
    2.6130    0.5025    0.0000 C   0  0  0  0  0  0  0  0  0  0  0  0
    3.4672    0.0000    0.0000 C   0  0  0  0  0  0  0  0  0  0  0  0
    2.6130    1.5075    0.0000 C   0  0  0  0  0  0  0  0  0  0  0  0
    4.3214    0.5025    0.0000 O   0  0  0  0  0  0  0  0  0  0  0  0
    1.7587    2.0100    0.0000 C   0  0  0  0  0  0  0  0  0  0  0  0
    1.7587    3.0149    0.0000 C   0  0  0  0  0  0  0  0  0  0  0  0
  1  2  1  0  0  0  0 
  2  3  1  0  0  0  0 
  3  4  1  0  0  0  0 
  4  5  1  0  0  0  0 
  4  6  1  0  0  0  0 
  5  7  1  0  0  0  0 
  6  8  1  0  0  0  0 
  8  9  1  0  0  0  0 
M  END
> <Name>
1-Pentanol, 2-propyl-

> <Source>
NIST2DMolFile

> <Tox>
3.134

> <CAS>
58175-57-8

$$$$

  CDK

 15 15  0  0  0  0  0  0  0  0999 V2000
    3.5090   -0.0100    0.3509 O   0  0  0  0  0  0  0  0  0  0  0  0
    2.2205    0.0050   -0.1048 C   0  0  0  0  0  0  0  0  0  0  0  0
    4.4967    0.4470   -0.5786 C   0  0  0  0  0  0  0  0  0  0  0  0
    1.8587    0.3692   -1.2155 O   0  0  0  0  0  0  0  0  0  0  0  0
    1.2966   -0.5019    0.9856 C   0  0  0  0  0  0  0  0  0  0  0  0
    5.8608    0.3690    0.0734 C   0  0  0  0  0  0  0  0  0  0  0  0
   -0.1326   -0.5774    0.5668 C   0  0  0  0  0  0  0  0  0  0  0  0
   -0.9723    0.5208    0.7526 C   0  0  0  0  0  0  0  0  0  0  0  0
   -0.6299   -1.7459   -0.0102 C   0  0  0  0  0  0  0  0  0  0  0  0
   -2.3093    0.4506    0.3614 C   0  0  0  0  0  0  0  0  0  0  0  0
   -1.9670   -1.8162   -0.4012 C   0  0  0  0  0  0  0  0  0  0  0  0
   -3.1203    1.5289    0.5496 O   0  0  0  0  0  0  0  0  0  0  0  0
   -2.8067   -0.7180   -0.2154 C   0  0  0  0  0  0  0  0  0  0  0  0
   -3.1939    2.4777   -0.5128 C   0  0  0  0  0  0  0  0  0  0  0  0
   -4.1103   -0.7988   -0.6016 O   0  0  0  0  0  0  0  0  0  0  0  0
  1  2  1  0  0  0  0 
  1  3  1  0  0  0  0 
  4  2  2  0  0  0  0 
  5  2  1  0  0  0  0 
  3  6  1  0  0  0  0 
  7  5  1  0  0  0  0 
  7  8  2  0  0  0  0 
  7  9  1  0  0  0  0 
  8 10  1  0  0  0  0 
  9 11  2  0  0  0  0 
 12 10  1  0  0  0  0 
 10 13  2  0  0  0  0 
 13 11  1  0  0  0  0 
 12 14  1  0  0  0  0 
 15 13  1  0  0  0  0 
M  END
> <Name>
ethyl 2-(4-hydroxy-3-methoxyphenyl)acetate

> <Source>
Chemidplus3DMolFile

> <Tox>
2.770

> <CAS>
60563-13-5

$$$$

  CDK

 10 10  0  0  0  0  0  0  0  0999 V2000
    2.5968    0.4994    0.0000 C   0  0  0  0  0  0  0  0  0  0  0  0
    2.5968    1.4482    0.0000 C   0  0  0  0  0  0  0  0  0  0  0  0
    1.7478    0.0000    0.0000 C   0  0  0  0  0  0  0  0  0  0  0  0
    3.4956    0.0000    0.0000 C   0  0  0  0  0  0  0  0  0  0  0  0
    1.7478    1.9476    0.0000 C   0  0  0  0  0  0  0  0  0  0  0  0
    3.4457    1.9975    0.0000 Cl  0  0  0  0  0  0  0  0  0  0  0  0
    0.8489    0.4994    0.0000 C   0  0  0  0  0  0  0  0  0  0  0  0
    0.8489    1.4981    0.0000 C   0  0  0  0  0  0  0  0  0  0  0  0
    1.7478    2.9463    0.0000 N   0  0  0  0  0  0  0  0  0  0  0  0
    0.0000    2.0474    0.0000 Cl  0  0  0  0  0  0  0  0  0  0  0  0
  2  1  2  0  0  0  0 
  1  3  1  0  0  0  0 
  1  4  1  0  0  0  0 
  5  2  1  0  0  0  0 
  2  6  1  0  0  0  0 
  3  7  2  0  0  0  0 
  8  5  2  0  0  0  0 
  5  9  1  0  0  0  0 
  7  8  1  0  0  0  0 
  8 10  1  0  0  0  0 
M  END
> <Name>
Benzenamine, 2,6-dichloro-3-methyl-

> <Source>
NIST2DMolFile

> <Tox>
3.690

> <CAS>
64063-37-2

$$$$

  CDK

 10 10  0  0  0  0  0  0  0  0999 V2000
    3.4678    0.5100    0.0000 C   0  0  0  0  0  0  0  0  0  0  0  0
    3.4678    1.4789    0.0000 C   0  0  0  0  0  0  0  0  0  0  0  0
    2.6009    0.0000    0.0000 C   0  0  0  0  0  0  0  0  0  0  0  0
    4.3858    0.0000    0.0000 Cl  0  0  0  0  0  0  0  0  0  0  0  0
    2.6009    1.9889    0.0000 C   0  0  0  0  0  0  0  0  0  0  0  0
    1.7849    0.5100    0.0000 C   0  0  0  0  0  0  0  0  0  0  0  0
    1.7849    1.4789    0.0000 C   0  0  0  0  0  0  0  0  0  0  0  0
    2.6009    3.0089    0.0000 O   0  0  0  0  0  0  0  0  0  0  0  0
    0.9180    0.0000    0.0000 O   0  0  0  0  0  0  0  0  0  0  0  0
    0.0000    0.5100    0.0000 C   0  0  0  0  0  0  0  0  0  0  0  0
  2  1  2  0  0  0  0 
  1  3  1  0  0  0  0 
  1  4  1  0  0  0  0 
  5  2  1  0  0  0  0 
  3  6  2  0  0  0  0 
  7  5  2  0  0  0  0 
  5  8  1  0  0  0  0 
  6  7  1  0  0  0  0 
  6  9  1  0  0  0  0 
  9 10  1  0  0  0  0 
M  END
> <Name>
3-Chloro-5-methoxyphenol

> <Source>
NIST2DMolFile

> <Tox>
3.760

> <CAS>
65262-96-6

$$$$

  CDK

  5  4  0  0  0  0  0  0  0  0999 V2000
    1.9939   -3.4556    0.0000 C   0  0  0  0  0  0  0  0  0  0  0  0
    1.3304   -2.3049    0.0000 C   0  0  0  0  0  0  0  0  0  0  0  0
    0.0000   -2.3049    0.0000 O   0  0  0  0  0  0  0  0  0  0  0  0
    1.9939   -1.1507    0.0000 C   0  0  0  0  0  0  0  0  0  0  0  0
    2.6608   -0.0000    0.0000 C   0  0  0  0  0  0  0  0  0  0  0  0
  1  2  1  0  0  0  0 
  2  3  1  0  0  0  0 
  2  4  1  0  0  0  0 
  4  5  3  0  0  0  0 
M  END
> <Name>
3-Butyn-2-ol

> <Source>
DSSTox2DMolFile

> <Tox>
2.598

> <CAS>
65337-13-5

$$$$

  CDK

 12 12  0  0  0  0  0  0  0  0999 V2000
    1.7658    0.3118    0.0046 O   0  0  0  0  0  0  0  0  0  0  0  0
    0.4387    0.0043    0.0035 C   0  0  0  0  0  0  0  0  0  0  0  0
    2.6841   -0.7797    0.0049 C   0  0  0  0  0  0  0  0  0  0  0  0
   -0.5237    1.0138    0.0013 C   0  0  0  0  0  0  0  0  0  0  0  0
    0.0457   -1.3340    0.0028 C   0  0  0  0  0  0  0  0  0  0  0  0
    4.0966   -0.2356   -0.0090 C   0  0  0  0  0  0  0  0  0  0  0  0
   -0.1529    2.3246    0.0004 O   0  0  0  0  0  0  0  0  0  0  0  0
   -1.8794    0.6852   -0.0016 C   0  0  0  0  0  0  0  0  0  0  0  0
   -1.3099   -1.6628   -0.0002 C   0  0  0  0  0  0  0  0  0  0  0  0
   -1.1990    3.2941   -0.0018 C   0  0  0  0  0  0  0  0  0  0  0  0
   -2.2724   -0.6531   -0.0024 C   0  0  0  0  0  0  0  0  0  0  0  0
   -1.6935   -2.9687   -0.0023 O   0  0  0  0  0  0  0  0  0  0  0  0
  1  2  1  0  0  0  0 
  1  3  1  0  0  0  0 
  2  4  2  0  0  0  0 
  2  5  1  0  0  0  0 
  3  6  1  0  0  0  0 
  7  4  1  0  0  0  0 
  4  8  1  0  0  0  0 
  5  9  2  0  0  0  0 
  7 10  1  0  0  0  0 
  8 11  2  0  0  0  0 
 12  9  1  0  0  0  0 
  9 11  1  0  0  0  0 
M  END
> <Name>
3-ethoxy-4-methoxyphenol

> <Source>
Chemidplus3DMolFile

> <Tox>
2.700

> <CAS>
65383-57-5

$$$$

  CDK

 11 10  0  0  0  0  0  0  0  0999 V2000
    0.0000    0.0000    0.0000 O   0  0  0  0  0  0  0  0  0  0  0  0
    0.8637    0.5070    0.0000 C   0  0  0  0  0  0  0  0  0  0  0  0
    1.7272    0.0056    0.0000 C   0  0  0  0  0  0  0  0  0  0  0  0
    2.5907    0.5127    0.0000 C   0  0  0  0  0  0  0  0  0  0  0  0
    3.4543    0.0112    0.0000 C   0  0  0  0  0  0  0  0  0  0  0  0
    4.3179    0.5181    0.0000 C   0  0  0  0  0  0  0  0  0  0  0  0
    5.1814    0.0167    0.0000 C   0  0  0  0  0  0  0  0  0  0  0  0
    6.0450    0.5238    0.0000 C   0  0  0  0  0  0  0  0  0  0  0  0
    6.9086    0.0223    0.0000 C   0  0  0  0  0  0  0  0  0  0  0  0
    7.7721    0.5294    0.0000 C   0  0  0  0  0  0  0  0  0  0  0  0
    8.6357    0.0279    0.0000 C   0  0  0  0  0  0  0  0  0  0  0  0
  1  2  2  0  0  0  0 
  2  3  1  0  0  0  0 
  3  4  1  0  0  0  0 
  4  5  1  0  0  0  0 
  5  6  2  0  0  0  0 
  6  7  1  0  0  0  0 
  7  8  1  0  0  0  0 
  8  9  1  0  0  0  0 
  9 10  1  0  0  0  0 
 10 11  1  0  0  0  0 
M  END
> <Name>
4-Decenal, (4E)-

> <Source>
NIST2DMolFile

> <Tox>
4.208

> <CAS>
65405-70-1

$$$$

  CDK

 10  9  0  0  0  0  0  0  0  0999 V2000
    2.8000    3.5000    0.0000 C   0  0  0  0  0  0  0  0  0  0  0  0
    1.4000    3.5000    0.0000 C   0  0  0  0  0  0  0  0  0  0  0  0
    1.4000    2.1000    0.0000 C   0  0  0  0  0  0  0  0  0  0  0  0
    0.0000    3.5000    0.0000 C   0  0  0  0  0  0  0  0  0  0  0  0
    1.4000    4.9000    0.0000 C   0  0  0  0  0  0  0  0  0  0  0  0
    2.8000    2.1000    0.0000 C   0  0  0  0  0  0  0  0  0  0  0  0
    0.0000    2.1000    0.0000 O   0  0  0  0  0  0  0  0  0  0  0  0
    1.4000    0.7000    0.0000 C   0  0  0  0  0  0  0  0  0  0  0  0
    3.5000    0.8876    0.0000 C   0  0  0  0  0  0  0  0  0  0  0  0
    0.1876    0.0000    0.0000 C   0  0  0  0  0  0  0  0  0  0  0  0
  1  2  1  0  0  0  0 
  2  3  1  0  0  0  0 
  2  4  1  0  0  0  0 
  2  5  1  0  0  0  0 
  3  6  1  0  0  0  0 
  3  7  1  0  0  0  0 
  3  8  1  0  0  0  0 
  6  9  1  0  0  0  0 
  8 10  1  0  0  0  0 
M  END
> <Name>
3-ethyl-2,2-dimethyl- 3-pentanol

> <Source>
Name2DMolFile

> <Tox>
2.831

> <CAS>
66793-96-2

$$$$

  CDK

  8  8  0  0  0  0  0  0  0  0999 V2000
    2.4267    2.2400    0.0000 C   0  0  0  0  0  0  0  0  0  0  0  0
    2.4267    0.8400    0.0000 C   0  0  0  0  0  0  0  0  0  0  0  0
    3.7333    2.6600    0.0000 N   0  0  0  0  0  0  0  0  0  0  0  0
    1.3067    3.0800    0.0000 C   0  0  0  0  0  0  0  0  0  0  0  0
    3.7333    0.4200    0.0000 N   0  0  0  0  0  0  0  0  0  0  0  0
    1.3067    0.0000    0.0000 C   0  0  0  0  0  0  0  0  0  0  0  0
    4.5733    1.5400    0.0000 C   0  0  0  0  0  0  0  0  0  0  0  0
    0.0000    0.6067    0.0000 O   0  0  0  0  0  0  0  0  0  0  0  0
  1  2  2  0  0  0  0 
  1  3  1  0  0  0  0 
  1  4  1  0  0  0  0 
  2  5  1  0  0  0  0 
  2  6  1  0  0  0  0 
  7  3  1  0  0  0  0 
  5  7  2  0  0  0  0 
  6  8  2  0  0  0  0 
M  END
> <Name>
1H-Imidazole-4-carboxaldehyde,5-methyl- (9CI)

> <Source>
IndexNet2DMolFile

> <Tox>
2.070

> <CAS>
68282-53-1

$$$$

  CDK

 17 18  0  0  0  0  0  0  0  0999 V2000
    2.4249    2.8000    0.0000 C   0  0  0  0  0  0  0  0  0  0  0  0
    1.2124    2.1000    0.0000 C   0  0  0  0  0  0  0  0  0  0  0  0
    2.4249    4.2000    0.0000 N   0  0  0  0  0  0  0  0  0  0  0  0
    3.6373    2.1000    0.0000 S   0  0  0  0  0  0  0  0  0  0  0  0
    0.0000    2.8000    0.0000 C   0  0  0  0  0  0  0  0  0  0  0  0
    1.2124    0.7000    0.0000 N   0  0  0  0  0  0  0  0  0  0  0  0
    1.2124    4.9000    0.0000 C   0  0  0  0  0  0  0  0  0  0  0  0
    4.8497    2.8000    0.0000 C   0  0  0  0  0  0  0  0  0  0  0  0
    0.0000    4.2000    0.0000 C   0  0  0  0  0  0  0  0  0  0  0  0
    2.4249    0.0000    0.0000 O   0  0  0  0  0  0  0  0  0  0  0  0
    0.0000    0.0000    0.0000 O   0  0  0  0  0  0  0  0  0  0  0  0
    6.0622    2.1000    0.0000 C   0  0  0  0  0  0  0  0  0  0  0  0
    7.2746    2.8000    0.0000 C   0  0  0  0  0  0  0  0  0  0  0  0
    6.0622    0.7000    0.0000 C   0  0  0  0  0  0  0  0  0  0  0  0
    8.4870    2.1000    0.0000 C   0  0  0  0  0  0  0  0  0  0  0  0
    7.2746    0.0000    0.0000 C   0  0  0  0  0  0  0  0  0  0  0  0
    8.4870    0.7000    0.0000 C   0  0  0  0  0  0  0  0  0  0  0  0
  1  2  1  0  0  0  0 
  1  3  2  0  0  0  0 
  1  4  1  0  0  0  0 
  2  5  2  0  0  0  0 
  2  6  1  0  0  0  0 
  7  3  1  0  0  0  0 
  4  8  1  0  0  0  0 
  5  9  1  0  0  0  0 
  6 10  2  0  0  0  0 
  6 11  1  0  0  0  0 
  9  7  2  0  0  0  0 
  8 12  1  0  0  0  0 
 12 13  1  0  0  0  0 
 12 14  2  0  0  0  0 
 13 15  2  0  0  0  0 
 16 14  1  0  0  0  0 
 15 17  1  0  0  0  0 
 17 16  2  0  0  0  0 
M  CHG  1   6   1
M  CHG  1  11  -1
M  END
> <Name>
3-Nitro-2-benzylsulfanylpyridine

> <Source>
Name2DMolFile

> <Tox>
4.720

> <CAS>
69212-31-3

$$$$

  CDK

 14 14  0  0  0  0  0  0  0  0999 V2000
    3.6233    2.1240    0.0000 C   0  0  0  0  0  0  0  0  0  0  0  0
    4.8311    2.8320    0.0000 C   0  0  0  0  0  0  0  0  0  0  0  0
    2.4156    2.8320    0.0000 C   0  0  0  0  0  0  0  0  0  0  0  0
    3.6233    0.7080    0.0000 C   0  0  0  0  0  0  0  0  0  0  0  0
    4.8311    4.2064    0.0000 C   0  0  0  0  0  0  0  0  0  0  0  0
    2.4156    4.2064    0.0000 C   0  0  0  0  0  0  0  0  0  0  0  0
    4.8311    0.0000    0.0000 O   0  0  0  0  0  0  0  0  0  0  0  0
    3.6233    4.9144    0.0000 C   0  0  0  0  0  0  0  0  0  0  0  0
    6.0389    4.9144    0.0000 N   0  0  0  0  0  0  0  0  0  0  0  0
    1.2078    4.9144    0.0000 N   0  0  0  0  0  0  0  0  0  0  0  0
    7.2467    4.2064    0.0000 O   0  0  0  0  0  0  0  0  0  0  0  0
    6.0389    6.2888    0.0000 O   0  0  0  0  0  0  0  0  0  0  0  0
    0.0000    4.2064    0.0000 O   0  0  0  0  0  0  0  0  0  0  0  0
    1.2078    6.2888    0.0000 O   0  0  0  0  0  0  0  0  0  0  0  0
  1  2  2  0  0  0  0 
  1  3  1  0  0  0  0 
  1  4  1  0  0  0  0 
  2  5  1  0  0  0  0 
  3  6  2  0  0  0  0 
  4  7  1  0  0  0  0 
  5  8  2  0  0  0  0 
  5  9  1  0  0  0  0 
  6  8  1  0  0  0  0 
  6 10  1  0  0  0  0 
  9 11  1  0  0  0  0 
  9 12  2  0  0  0  0 
 10 13  2  0  0  0  0 
 10 14  1  0  0  0  0 
M  CHG  1   9   1
M  CHG  1  10   1
M  CHG  1  11  -1
M  CHG  1  14  -1
M  END
> <Name>
3,5-Dinitrobenzyl alcohol

> <Source>
IndexNet2DMolFile

> <Tox>
3.530

> <CAS>
71022-43-0

$$$$

  CDK

 10  9  0  0  0  0  0  0  0  0999 V2000
    0.0000   -0.2062    0.0000 C   0  0  0  0  0  0  0  0  0  0  0  0
   -0.7145   -0.6188    0.0000 C   0  0  0  0  0  0  0  0  0  0  0  0
    0.0000    0.6188    0.0000 O   0  0  0  0  0  0  0  0  0  0  0  0
    0.7145   -0.6188    0.0000 O   0  0  0  0  0  0  0  0  0  0  0  0
   -1.4289   -0.2062    0.0000 C   0  0  0  0  0  0  0  0  0  0  0  0
    1.4289   -0.2062    0.0000 C   0  0  0  0  0  0  0  0  0  0  0  0
   -2.1434   -0.6188    0.0000 C   0  0  0  0  0  0  0  0  0  0  0  0
    1.4289    0.6188    0.0000 C   0  0  0  0  0  0  0  0  0  0  0  0
    2.1434    0.2062    0.0000 C   0  0  0  0  0  0  0  0  0  0  0  0
    2.1434   -0.6188    0.0000 C   0  0  0  0  0  0  0  0  0  0  0  0
  1  2  1  0  0  0  0 
  1  3  2  0  0  0  0 
  1  4  1  0  0  0  0 
  2  5  2  0  0  0  0 
  4  6  1  0  0  0  0 
  5  7  1  0  0  0  0 
  6  8  1  0  0  0  0 
  6  9  1  0  0  0  0 
  6 10  1  0  0  0  0 
M  END
> <Name>
2-Butenoicacid, 1,1-dimethylethyl ester, (E)-

> <Source>
Name2DMolFile

> <Tox>
2.361

> <CAS>
79218-15-8

$$$$

  CDK

 20 23  0  0  0  0  0  0  0  0999 V2000
   -5.1641   -1.9357    0.7576 Br  0  0  0  0  0  0  0  0  0  0  0  0
   -4.0664   -0.3560    1.0343 C   0  0  0  0  0  0  0  0  0  0  0  0
   -3.3254    0.0230   -0.2460 C   0  0  0  0  0  0  0  0  0  0  0  0
   -3.8366   -0.1647   -1.3646 O   0  0  0  0  0  0  0  0  0  0  0  0
   -2.0011    0.6298   -0.1430 C   0  0  0  0  0  0  0  0  0  0  0  0
   -0.8226   -0.1304   -0.1228 C   0  0  0  0  0  0  0  0  0  0  0  0
   -1.9495    2.0205   -0.0652 C   0  0  0  0  0  0  0  0  0  0  0  0
    0.4247    0.5290   -0.0222 C   0  0  0  0  0  0  0  0  0  0  0  0
   -0.8529   -1.5292   -0.1999 C   0  0  0  0  0  0  0  0  0  0  0  0
   -0.7212    2.6721    0.0340 C   0  0  0  0  0  0  0  0  0  0  0  0
    1.6244   -0.2248   -0.0005 C   0  0  0  0  0  0  0  0  0  0  0  0
    0.4750    1.9402    0.0566 C   0  0  0  0  0  0  0  0  0  0  0  0
    0.3293   -2.2719   -0.1784 C   0  0  0  0  0  0  0  0  0  0  0  0
    1.5741   -1.6360   -0.0794 C   0  0  0  0  0  0  0  0  0  0  0  0
    2.8716    0.4345    0.1001 C   0  0  0  0  0  0  0  0  0  0  0  0
    1.7198    2.5761    0.1559 C   0  0  0  0  0  0  0  0  0  0  0  0
    2.7703   -2.3679   -0.0565 C   0  0  0  0  0  0  0  0  0  0  0  0
    2.9020    1.8334    0.1772 C   0  0  0  0  0  0  0  0  0  0  0  0
    4.0502   -0.3256    0.1204 C   0  0  0  0  0  0  0  0  0  0  0  0
    3.9985   -1.7163    0.0426 C   0  0  0  0  0  0  0  0  0  0  0  0
  1  2  1  0  0  0  0 
  3  2  1  0  0  0  0 
  4  3  2  0  0  0  0 
  5  3  1  0  0  0  0 
  6  5  2  0  0  0  0 
  5  7  1  0  0  0  0 
  8  6  1  0  0  0  0 
  6  9  1  0  0  0  0 
 10  7  2  0  0  0  0 
  8 11  1  0  0  0  0 
  8 12  2  0  0  0  0 
  9 13  2  0  0  0  0 
 12 10  1  0  0  0  0 
 11 14  1  0  0  0  0 
 11 15  2  0  0  0  0 
 12 16  1  0  0  0  0 
 14 13  1  0  0  0  0 
 14 17  2  0  0  0  0 
 15 18  1  0  0  0  0 
 15 19  1  0  0  0  0 
 16 18  2  0  0  0  0 
 17 20  1  0  0  0  0 
 19 20  2  0  0  0  0 
M  END
> <Name>
2-bromo-1-pyren-1-ylethanone

> <Source>
Chemidplus3DMolFile

> <Tox>
5.387

> <CAS>
80480-15-5

$$$$

  CDK

  9  8  0  0  0  0  0  0  0  0999 V2000
    0.0000    0.7000    0.0000 C   0  0  0  0  0  0  0  0  0  0  0  0
    1.2124    1.4000    0.0000 C   0  0  0  0  0  0  0  0  0  0  0  0
    2.4249    2.1000    0.0000 C   0  0  0  0  0  0  0  0  0  0  0  0
    3.6373    1.4000    0.0000 C   0  0  0  0  0  0  0  0  0  0  0  0
    2.4249    3.5000    0.0000 O   0  0  0  0  0  0  0  0  0  0  0  0
    4.8497    2.1000    0.0000 C   0  0  0  0  0  0  0  0  0  0  0  0
    3.6373    0.0000    0.0000 C   0  0  0  0  0  0  0  0  0  0  0  0
    6.0622    1.4000    0.0000 C   0  0  0  0  0  0  0  0  0  0  0  0
    7.2746    2.1000    0.0000 C   0  0  0  0  0  0  0  0  0  0  0  0
  1  2  3  0  0  0  0 
  2  3  1  0  0  0  0 
  3  4  1  0  0  0  0 
  3  5  1  0  0  0  0 
  4  6  1  0  0  0  0 
  4  7  1  0  0  0  0 
  6  8  1  0  0  0  0 
  8  9  1  0  0  0  0 
M  END
> <Name>
4-Methylhept-1-yn-3-ol

> <Source>
Name2DMolFile

> <Tox>
3.743

> <CAS>
87777-46-6

$$$$

  CDK

  9  8  0  0  0  0  0  0  0  0999 V2000
   -2.8579   -0.2062    0.0000 S   0  0  0  0  0  0  0  0  0  0  0  0
   -2.1434    0.2062    0.0000 C   0  0  0  0  0  0  0  0  0  0  0  0
   -1.4289   -0.2062    0.0000 N   0  0  0  0  0  0  0  0  0  0  0  0
   -0.7145    0.2062    0.0000 C   0  0  0  0  0  0  0  0  0  0  0  0
   -0.0000   -0.2062    0.0000 C   0  0  0  0  0  0  0  0  0  0  0  0
    0.7145    0.2062    0.0000 C   0  0  0  0  0  0  0  0  0  0  0  0
    1.4289   -0.2062    0.0000 N   0  0  0  0  0  0  0  0  0  0  0  0
    2.1434    0.2062    0.0000 C   0  0  0  0  0  0  0  0  0  0  0  0
    2.8579   -0.2062    0.0000 S   0  0  0  0  0  0  0  0  0  0  0  0
  1  2  2  0  0  0  0 
  2  3  2  0  0  0  0 
  3  4  1  0  0  0  0 
  4  5  2  0  0  0  0 
  5  6  1  0  0  0  0 
  6  7  1  0  0  0  0 
  7  8  2  0  0  0  0 
  8  9  2  0  0  0  0 
M  END
> <Name>
1,3-PROPANE DIISOTHIOCYANATE 95%

> <Source>
Other

> <Tox>
5.740

> <CAS>
109704-32-7

$$$$

  CDK

 11 11  0  0  0  0  0  0  0  0999 V2000
    2.1000    2.4249    0.0000 C   0  0  0  0  0  0  0  0  0  0  0  0
    2.8000    1.2124    0.0000 C   0  0  0  0  0  0  0  0  0  0  0  0
    0.7000    2.4249    0.0000 C   0  0  0  0  0  0  0  0  0  0  0  0
    2.8000    3.6373    0.0000 O   0  0  0  0  0  0  0  0  0  0  0  0
    4.2000    1.2124    0.0000 C   0  0  0  0  0  0  0  0  0  0  0  0
    0.0000    1.2124    0.0000 C   0  0  0  0  0  0  0  0  0  0  0  0
    4.9000    2.4249    0.0000 C   0  0  0  0  0  0  0  0  0  0  0  0
    4.9000    0.0000    0.0000 C   0  0  0  0  0  0  0  0  0  0  0  0
    6.3000    2.4249    0.0000 C   0  0  0  0  0  0  0  0  0  0  0  0
    6.3000    0.0000    0.0000 C   0  0  0  0  0  0  0  0  0  0  0  0
    7.0000    1.2124    0.0000 C   0  0  0  0  0  0  0  0  0  0  0  0
  1  2  1  0  0  0  0 
  1  3  1  0  0  0  0 
  1  4  1  0  0  0  0 
  2  5  1  0  0  0  0 
  3  6  1  0  0  0  0 
  5  7  1  0  0  0  0 
  5  8  2  0  0  0  0 
  7  9  2  0  0  0  0 
 10  8  1  0  0  0  0 
  9 11  1  0  0  0  0 
 11 10  2  0  0  0  0 
M  END
> <Name>
(�)-a-Ethylphenethyl alcohol

> <Source>
Name2DMolFile

> <Tox>
2.840

> <CAS>
120055-09-6

$$$$

  CDK

 11 10  0  0  0  0  0  0  0  0999 V2000
    0.0000    0.0000    0.0000 C   0  0  0  0  0  0  0  0  0  0  0  0
   -0.7000    1.2124    0.0000 C   0  0  0  0  0  0  0  0  0  0  0  0
   -0.7000   -1.2124    0.0000 O   0  0  0  0  0  0  0  0  0  0  0  0
    1.4000    0.0000    0.0000 O   0  0  0  0  0  0  0  0  0  0  0  0
   -2.1000    1.2124    0.0000 C   0  0  0  0  0  0  0  0  0  0  0  0
    2.1000   -1.2124    0.0000 C   0  0  0  0  0  0  0  0  0  0  0  0
   -2.8000    0.0000    0.0000 C   0  0  0  0  0  0  0  0  0  0  0  0
   -2.8000    2.4249    0.0000 O   0  0  0  0  0  0  0  0  0  0  0  0
    3.5000   -1.2124    0.0000 C   0  0  0  0  0  0  0  0  0  0  0  0
   -4.2000    0.0000    0.0000 C   0  0  0  0  0  0  0  0  0  0  0  0
   -5.6000    0.0000    0.0000 N   0  0  0  0  0  0  0  0  0  0  0  0
  2  1  1  0  0  0  0 
  1  3  2  0  0  0  0 
  1  4  1  0  0  0  0 
  5  2  1  0  0  0  0 
  4  6  1  0  0  0  0 
  7  5  1  0  0  0  0 
  5  8  1  0  0  0  0 
  9  6  1  0  0  0  0 
  7 10  1  0  0  0  0 
 11 10  3  0  0  0  0 
M  END
> <Name>
Butanoicacid, 4-cyano-3-hydroxy-, ethyl ester, (R)-

> <Source>
IndexNet2DMolFile

> <Tox>
1.360

> <CAS>
141942-85-0

$$$$

  CDK

 12 13  0  0  0  0  0  0  0  0999 V2000
    7.3937    2.5326    0.0000 C   0  0  0  0  0  0  0  0  0  0  0  0
    8.2166    1.4000    0.0000 C   0  0  0  0  0  0  0  0  0  0  0  0
    6.0622    2.1000    0.0000 C   0  0  0  0  0  0  0  0  0  0  0  0
    7.3937    0.2674    0.0000 C   0  0  0  0  0  0  0  0  0  0  0  0
    4.8497    2.8000    0.0000 C   0  0  0  0  0  0  0  0  0  0  0  0
    6.0622    0.7000    0.0000 C   0  0  0  0  0  0  0  0  0  0  0  0
    3.6373    2.1000    0.0000 C   0  0  0  0  0  0  0  0  0  0  0  0
    4.8497    0.0000    0.0000 C   0  0  0  0  0  0  0  0  0  0  0  0
    3.6373    0.7000    0.0000 C   0  0  0  0  0  0  0  0  0  0  0  0
    2.4249    0.0000    0.0000 N   0  0  0  0  0  0  0  0  0  0  0  0
    1.2124    0.7000    0.0000 C   0  0  0  0  0  0  0  0  0  0  0  0
    0.0000    1.4000    0.0000 S   0  0  0  0  0  0  0  0  0  0  0  0
  1  2  1  0  0  0  0 
  1  3  1  0  0  0  0 
  2  4  1  0  0  0  0 
  5  3  1  0  0  0  0 
  6  3  2  0  0  0  0 
  4  6  1  0  0  0  0 
  7  5  2  0  0  0  0 
  6  8  1  0  0  0  0 
  9  7  1  0  0  0  0 
  8  9  2  0  0  0  0 
  9 10  1  0  0  0  0 
 10 11  2  0  0  0  0 
 11 12  2  0  0  0  0 
M  END
> <Name>
Indan-5-ylisothiocyanate

> <Source>
Name2DMolFile

> <Tox>
5.481

> <CAS>
149865-84-9

$$$$

  CDK

 14 14  0  0  0  0  0  0  0  0999 V2000
    1.4289   -0.8250    0.0000 C   0  0  0  0  0  0  0  0  0  0  0  0
    0.7145   -0.4125    0.0000 C   0  0  0  0  0  0  0  0  0  0  0  0
    2.1434   -0.4125    0.0000 O   0  0  0  0  0  0  0  0  0  0  0  0
    0.7145    0.4125    0.0000 C   0  0  0  0  0  0  0  0  0  0  0  0
    0.0000   -0.8250    0.0000 C   0  0  0  0  0  0  0  0  0  0  0  0
    0.0000    0.8250    0.0000 C   0  0  0  0  0  0  0  0  0  0  0  0
    1.4289    0.8250    0.0000 F   0  0  0  0  0  0  0  0  0  0  0  0
   -0.7145   -0.4125    0.0000 C   0  0  0  0  0  0  0  0  0  0  0  0
   -0.7145    0.4125    0.0000 C   0  0  0  0  0  0  0  0  0  0  0  0
    0.0000    1.6500    0.0000 Cl  0  0  0  0  0  0  0  0  0  0  0  0
   -1.4289   -0.8250    0.0000 C   0  0  0  0  0  0  0  0  0  0  0  0
   -2.1434   -1.2375    0.0000 F   0  0  0  0  0  0  0  0  0  0  0  0
   -1.4289   -1.6500    0.0000 F   0  0  0  0  0  0  0  0  0  0  0  0
   -2.1434   -0.4125    0.0000 F   0  0  0  0  0  0  0  0  0  0  0  0
  1  2  1  0  0  0  0 
  1  3  2  0  0  0  0 
  2  4  1  0  0  0  0 
  2  5  2  0  0  0  0 
  4  6  2  0  0  0  0 
  4  7  1  0  0  0  0 
  8  5  1  0  0  0  0 
  6  9  1  0  0  0  0 
  6 10  1  0  0  0  0 
  9  8  2  0  0  0  0 
  8 11  1  0  0  0  0 
 11 12  1  0  0  0  0 
 11 13  1  0  0  0  0 
 11 14  1  0  0  0  0 
M  END
> <Name>
3-Chloro-2-fluoro-5-(trifluoromethyl)benzaldehyde

> <Source>
Name2DMolFile

> <Tox>
4.240

> <CAS>
261763-02-4

$$$$

  CDK

 11 11  0  0  0  0  0  0  0  0999 V2000
    1.0717   -0.4125    0.0000 C   0  0  0  0  0  0  0  0  0  0  0  0
    0.3572    0.0000    0.0000 C   0  0  0  0  0  0  0  0  0  0  0  0
    1.7862    0.0000    0.0000 O   0  0  0  0  0  0  0  0  0  0  0  0
   -0.3572   -0.4125    0.0000 C   0  0  0  0  0  0  0  0  0  0  0  0
    0.3572    0.8250    0.0000 C   0  0  0  0  0  0  0  0  0  0  0  0
   -1.0717    0.0000    0.0000 C   0  0  0  0  0  0  0  0  0  0  0  0
   -0.3572   -1.2375    0.0000 F   0  0  0  0  0  0  0  0  0  0  0  0
   -0.3572    1.2375    0.0000 C   0  0  0  0  0  0  0  0  0  0  0  0
    1.0717    1.2375    0.0000 Cl  0  0  0  0  0  0  0  0  0  0  0  0
   -1.0717    0.8250    0.0000 C   0  0  0  0  0  0  0  0  0  0  0  0
   -1.7862   -0.4125    0.0000 C   0  0  0  0  0  0  0  0  0  0  0  0
  1  2  1  0  0  0  0 
  1  3  2  0  0  0  0 
  2  4  1  0  0  0  0 
  2  5  2  0  0  0  0 
  4  6  2  0  0  0  0 
  4  7  1  0  0  0  0 
  8  5  1  0  0  0  0 
  5  9  1  0  0  0  0 
  6 10  1  0  0  0  0 
  6 11  1  0  0  0  0 
 10  8  2  0  0  0  0 
M  END
> <Name>
6-Chloro-2-fluoro-3-methylbenzaldehyde

> <Source>
Name2DMolFile

> <Tox>
3.740

> <CAS>
286474-59-7

$$$$
