
  CDK

  4  3  0  0  0  0  0  0  0  0999 V2000
    1.9950   -0.0000    0.0000 C   0  0  0  0  0  0  0  0  0  0  0  0
    1.3292   -1.1518    0.0000 S   0  0  0  0  0  0  0  0  0  0  0  0
    1.9950   -2.3037    0.0000 O   0  0  0  0  0  0  0  0  0  0  0  0
    0.0000   -1.1518    0.0000 C   0  0  0  0  0  0  0  0  0  0  0  0
  1  2  1  0  0  0  0 
  2  3  2  0  0  0  0 
  2  4  1  0  0  0  0 
M  END
> <Name>
Sulfinylbis-methane (9CI)

> <Source>
DSSTox2DMolFile

> <Tox>
0.361

> <CAS>
67-68-5

$$$$

  CDK

  5  4  0  0  0  0  0  0  0  0999 V2000
    3.4567   -1.9945    0.0000 C   0  0  0  0  0  0  0  0  0  0  0  0
    2.3056   -1.3308    0.0000 N   0  0  0  0  0  0  0  0  0  0  0  0
    1.1511   -1.9945    0.0000 C   0  0  0  0  0  0  0  0  0  0  0  0
    2.3056   -0.0000    0.0000 C   0  0  0  0  0  0  0  0  0  0  0  0
    0.0000   -1.3308    0.0000 O   0  0  0  0  0  0  0  0  0  0  0  0
  1  2  1  0  0  0  0 
  2  3  1  0  0  0  0 
  2  4  1  0  0  0  0 
  3  5  2  0  0  0  0 
M  END
> <Name>
Formamide, N,N-dimethyl-

> <Source>
DSSTox2DMolFile

> <Tox>
0.841

> <CAS>
68-12-2

$$$$

  CDK

 19 23  0  0  0  0  0  0  0  0999 V2000
    1.2240   -2.6781    0.0000 C   0  0  0  0  0  0  0  0  0  0  0  0
    0.0000   -2.6781    0.0000 O   0  0  0  0  0  0  0  0  0  0  0  0
    0.5935   -3.7241    0.0000 C   0  0  0  0  0  0  0  0  0  0  0  0
    2.2923   -2.4110    0.0000 C   0  0  0  0  0  0  0  0  0  0  0  0
    1.8398   -3.3828    0.0000 C   0  0  0  0  0  0  0  0  0  0  0  0
    3.4422   -2.6855    0.0000 C   0  0  0  0  0  0  0  0  0  0  0  0
    1.9140   -1.2760    0.0000 C   0  0  0  0  0  0  0  0  0  0  0  0
    3.3383   -3.6647    0.0000 C   0  0  0  0  0  0  0  0  0  0  0  0
    4.8739   -1.9881    0.0000 C   0  0  0  0  0  0  0  0  0  0  0  0
    4.4214   -3.1009    0.0000 C   0  0  0  0  0  0  0  0  0  0  0  0
    6.3353   -2.6855    0.0000 C   0  0  0  0  0  0  0  0  0  0  0  0
    4.4214   -0.7641    0.0000 C   0  0  0  0  0  0  0  0  0  0  0  0
    5.6751   -1.1499    0.0000 Cl  0  0  0  0  0  0  0  0  0  0  0  0
    5.7122   -3.7315    0.0000 C   0  0  0  0  0  0  0  0  0  0  0  0
    3.9985   -4.2879    0.0000 Cl  0  0  0  0  0  0  0  0  0  0  0  0
    7.4184   -2.4036    0.0000 Cl  0  0  0  0  0  0  0  0  0  0  0  0
    5.1484   -0.0000    0.0000 Cl  0  0  0  0  0  0  0  0  0  0  0  0
    3.5831   -0.0668    0.0000 Cl  0  0  0  0  0  0  0  0  0  0  0  0
    6.1647   -4.7775    0.0000 Cl  0  0  0  0  0  0  0  0  0  0  0  0
  1  2  1  0  0  0  0 
  1  3  1  0  0  0  0 
  1  4  1  0  0  0  0 
  2  3  1  0  0  0  0 
  3  5  1  0  0  0  0 
  4  6  1  0  0  0  0 
  4  7  1  0  0  0  0 
  5  7  1  0  0  0  0 
  5  8  1  0  0  0  0 
  6  9  1  0  0  0  0 
  6  8  1  0  0  0  0 
  8 10  1  0  0  0  0 
  9 11  1  0  0  0  0 
  9 12  1  0  0  0  0 
  9 13  1  0  0  0  0 
 10 14  1  0  0  0  0 
 10 12  1  0  0  0  0 
 10 15  1  0  0  0  0 
 14 11  2  0  0  0  0 
 11 16  1  0  0  0  0 
 12 17  1  0  0  0  0 
 12 18  1  0  0  0  0 
 14 19  1  0  0  0  0 
M  END
> <Name>
2,7:3,6-Dimethanonaphth(2,3-b)oxirene, 3,4,5,6,9,9-hexachloro-1a,2,2a,3,6,6a,7,7a-octahydro-, (1aalpha,2beta,2abeta,3alpha,6alpha,6abeta,7beta,7aalpha)-

> <Source>
DSSTox2DMolFile

> <Tox>
8.755

> <CAS>
72-20-8

$$$$

  CDK

  5  4  0  0  0  0  0  0  0  0999 V2000
    3.4567   -1.9945    0.0000 C   0  0  0  0  0  0  0  0  0  0  0  0
    2.3056   -1.3308    0.0000 C   0  0  0  0  0  0  0  0  0  0  0  0
    2.3056   -0.0000    0.0000 O   0  0  0  0  0  0  0  0  0  0  0  0
    1.1511   -1.9945    0.0000 C   0  0  0  0  0  0  0  0  0  0  0  0
    0.0000   -1.3308    0.0000 C   0  0  0  0  0  0  0  0  0  0  0  0
  1  2  1  0  0  0  0 
  2  3  1  0  0  0  0 
  2  4  1  0  0  0  0 
  4  5  1  0  0  0  0 
M  END
> <Name>
sec-Butyl alcohol

> <Source>
DSSTox2DMolFile

> <Tox>
1.305

> <CAS>
78-92-2

$$$$

  CDK

  5  4  0  0  0  0  0  0  0  0999 V2000
    2.3056   -0.0000    0.0000 O   0  0  0  0  0  0  0  0  0  0  0  0
    2.3056   -1.3308    0.0000 C   0  0  0  0  0  0  0  0  0  0  0  0
    3.4567   -1.9945    0.0000 C   0  0  0  0  0  0  0  0  0  0  0  0
    1.1511   -1.9945    0.0000 C   0  0  0  0  0  0  0  0  0  0  0  0
    0.0000   -1.3308    0.0000 N   0  0  0  0  0  0  0  0  0  0  0  0
  1  2  1  0  0  0  0 
  2  3  1  0  0  0  0 
  2  4  1  0  0  0  0 
  4  5  1  0  0  0  0 
M  END
> <Name>
2-Propanol, 1-amino-

> <Source>
DSSTox2DMolFile

> <Tox>
1.474

> <CAS>
78-96-6

$$$$

  CDK

 12 12  0  0  0  0  0  0  0  0999 V2000
    4.6511   -2.4840    0.0000 C   0  0  0  0  0  0  0  0  0  0  0  0
    3.3267   -2.4840    0.0000 C   0  0  0  0  0  0  0  0  0  0  0  0
    5.3164   -1.3307    0.0000 C   0  0  0  0  0  0  0  0  0  0  0  0
    2.6614   -1.3307    0.0000 C   0  0  0  0  0  0  0  0  0  0  0  0
    4.6511   -0.1774    0.0000 C   0  0  0  0  0  0  0  0  0  0  0  0
    6.3366   -2.1861    0.0000 N   0  0  0  0  0  0  0  0  0  0  0  0
    6.3366   -0.4752    0.0000 C   0  0  0  0  0  0  0  0  0  0  0  0
    3.3267   -0.1774    0.0000 C   0  0  0  0  0  0  0  0  0  0  0  0
    1.3307   -1.3307    0.0000 C   0  0  0  0  0  0  0  0  0  0  0  0
    1.3307   -2.6614    0.0000 C   0  0  0  0  0  0  0  0  0  0  0  0
    0.0000   -1.3307    0.0000 N   0  0  0  0  0  0  0  0  0  0  0  0
    1.3307   -0.0000    0.0000 C   0  0  0  0  0  0  0  0  0  0  0  0
  1  2  1  0  0  0  0 
  1  3  1  0  0  0  0 
  2  4  1  0  0  0  0 
  5  3  1  0  0  0  0 
  3  6  1  0  0  0  0 
  3  7  1  0  0  0  0 
  4  8  1  0  0  0  0 
  4  9  1  0  0  0  0 
  8  5  1  0  0  0  0 
  9 10  1  0  0  0  0 
  9 11  1  0  0  0  0 
  9 12  1  0  0  0  0 
M  END
> <Name>
Cyclohexanemethanamine, 4-amino-alpha,alpha,4-trimethyl-

> <Source>
DSSTox2DMolFile

> <Tox>
3.416

> <CAS>
80-52-4

$$$$

  CDK

  7  6  0  0  0  0  0  0  0  0999 V2000
    0.0000   -2.3052    0.0000 O   0  0  0  0  0  0  0  0  0  0  0  0
    1.3306   -2.3052    0.0000 C   0  0  0  0  0  0  0  0  0  0  0  0
    1.9941   -1.1508    0.0000 C   0  0  0  0  0  0  0  0  0  0  0  0
    1.9941   -3.4560    0.0000 O   0  0  0  0  0  0  0  0  0  0  0  0
    3.3247   -1.1508    0.0000 C   0  0  0  0  0  0  0  0  0  0  0  0
    1.3306   -0.0000    0.0000 C   0  0  0  0  0  0  0  0  0  0  0  0
    3.3247   -3.4560    0.0000 C   0  0  0  0  0  0  0  0  0  0  0  0
  1  2  2  0  0  0  0 
  2  3  1  0  0  0  0 
  2  4  1  0  0  0  0 
  3  5  2  0  0  0  0 
  3  6  1  0  0  0  0 
  4  7  1  0  0  0  0 
M  END
> <Name>
2-Propenoic acid, 2-methyl-, methyl ester

> <Source>
DSSTox2DMolFile

> <Tox>
2.495

> <CAS>
80-62-6

$$$$

  CDK

 11 11  0  0  0  0  0  0  0  0999 V2000
    0.0000   -3.4588    0.0000 Cl  0  0  0  0  0  0  0  0  0  0  0  0
    0.6657   -2.3043    0.0000 C   0  0  0  0  0  0  0  0  0  0  0  0
    0.0000   -1.1545    0.0000 Cl  0  0  0  0  0  0  0  0  0  0  0  0
    1.9971   -2.3043    0.0000 C   0  0  0  0  0  0  0  0  0  0  0  0
    2.6581   -1.1545    0.0000 C   0  0  0  0  0  0  0  0  0  0  0  0
    2.6581   -3.4588    0.0000 C   0  0  0  0  0  0  0  0  0  0  0  0
    1.9971   -0.0000    0.0000 Cl  0  0  0  0  0  0  0  0  0  0  0  0
    3.9895   -1.1545    0.0000 C   0  0  0  0  0  0  0  0  0  0  0  0
    3.9895   -3.4588    0.0000 C   0  0  0  0  0  0  0  0  0  0  0  0
    1.9971   -4.6086    0.0000 Cl  0  0  0  0  0  0  0  0  0  0  0  0
    4.6552   -2.3043    0.0000 C   0  0  0  0  0  0  0  0  0  0  0  0
  1  2  1  0  0  0  0 
  2  3  1  0  0  0  0 
  2  4  1  0  0  0  0 
  4  5  2  0  0  0  0 
  4  6  1  0  0  0  0 
  5  7  1  0  0  0  0 
  5  8  1  0  0  0  0 
  9  6  2  0  0  0  0 
  6 10  1  0  0  0  0 
  8 11  2  0  0  0  0 
 11  9  1  0  0  0  0 
M  END
> <Name>
Toluene, alpha,alpha2,6-tetrachloro- (8CI)

> <Source>
DSSTox2DMolFile

> <Tox>
5.375

> <CAS>
81-19-6

$$$$

  CDK

 19 20  0  0  0  0  0  0  0  0999 V2000
    3.4502   -0.9739    0.0000 O   0  0  0  0  0  0  0  0  0  0  0  0
    3.4502   -2.3002    0.0000 C   0  0  0  0  0  0  0  0  0  0  0  0
    2.3002   -2.9736    0.0000 C   0  0  0  0  0  0  0  0  0  0  0  0
    4.6003   -2.9736    0.0000 N   0  0  0  0  0  0  0  0  0  0  0  0
    2.3002   -4.2998    0.0000 C   0  0  0  0  0  0  0  0  0  0  0  0
    1.1501   -2.3002    0.0000 C   0  0  0  0  0  0  0  0  0  0  0  0
    4.6003   -4.2998    0.0000 N   0  0  0  0  0  0  0  0  0  0  0  0
    5.7607   -2.3002    0.0000 C   0  0  0  0  0  0  0  0  0  0  0  0
    1.1501   -4.9629    0.0000 C   0  0  0  0  0  0  0  0  0  0  0  0
    3.4502   -4.9629    0.0000 N   0  0  0  0  0  0  0  0  0  0  0  0
    0.0000   -2.9736    0.0000 C   0  0  0  0  0  0  0  0  0  0  0  0
    6.9108   -2.9736    0.0000 S   0  0  0  0  0  0  0  0  0  0  0  0
    0.0000   -4.2998    0.0000 C   0  0  0  0  0  0  0  0  0  0  0  0
    8.0609   -2.3002    0.0000 P   0  0  0  0  0  0  0  0  0  0  0  0
    8.7240   -3.4606    0.0000 S   0  0  0  0  0  0  0  0  0  0  0  0
    7.3978   -1.1501    0.0000 O   0  0  0  0  0  0  0  0  0  0  0  0
    9.2110   -1.6370    0.0000 O   0  0  0  0  0  0  0  0  0  0  0  0
    8.0609   -0.0000    0.0000 C   0  0  0  0  0  0  0  0  0  0  0  0
   10.3610   -2.3002    0.0000 C   0  0  0  0  0  0  0  0  0  0  0  0
  1  2  2  0  0  0  0 
  2  3  1  0  0  0  0 
  2  4  1  0  0  0  0 
  3  5  2  0  0  0  0 
  3  6  1  0  0  0  0 
  7  4  1  0  0  0  0 
  4  8  1  0  0  0  0 
  5  9  1  0  0  0  0 
  5 10  1  0  0  0  0 
 11  6  2  0  0  0  0 
 10  7  2  0  0  0  0 
  8 12  1  0  0  0  0 
  9 13  2  0  0  0  0 
 13 11  1  0  0  0  0 
 12 14  1  0  0  0  0 
 14 15  2  0  0  0  0 
 14 16  1  0  0  0  0 
 14 17  1  0  0  0  0 
 16 18  1  0  0  0  0 
 17 19  1  0  0  0  0 
M  END
> <Name>
Phosphorodithioic acid, O,O-dimethyl ester, S-ester with 3-(mercaptomethyl)-1,2,3-benzotriazin-4(3H)-one

> <Source>
DSSTox2DMolFile

> <Tox>
5.507

> <CAS>
86-50-0

$$$$

  CDK

 16 17  0  0  0  0  0  0  0  0999 V2000
    6.6418   -0.0000    0.0000 C   0  0  0  0  0  0  0  0  0  0  0  0
    7.9719   -0.0000    0.0000 C   0  0  0  0  0  0  0  0  0  0  0  0
    5.9767   -1.1487    0.0000 C   0  0  0  0  0  0  0  0  0  0  0  0
    8.6369   -1.1487    0.0000 C   0  0  0  0  0  0  0  0  0  0  0  0
    6.6418   -2.3061    0.0000 C   0  0  0  0  0  0  0  0  0  0  0  0
    4.6467   -1.1487    0.0000 N   0  0  0  0  0  0  0  0  0  0  0  0
    7.9719   -2.3061    0.0000 C   0  0  0  0  0  0  0  0  0  0  0  0
    3.9903   -2.3061    0.0000 C   0  0  0  0  0  0  0  0  0  0  0  0
    4.6467   -3.4548    0.0000 O   0  0  0  0  0  0  0  0  0  0  0  0
    2.6602   -2.3061    0.0000 C   0  0  0  0  0  0  0  0  0  0  0  0
    1.9951   -3.4548    0.0000 C   0  0  0  0  0  0  0  0  0  0  0  0
    1.9951   -1.1487    0.0000 C   0  0  0  0  0  0  0  0  0  0  0  0
    2.6602   -4.6035    0.0000 O   0  0  0  0  0  0  0  0  0  0  0  0
    0.6650   -3.4548    0.0000 C   0  0  0  0  0  0  0  0  0  0  0  0
    0.6650   -1.1487    0.0000 C   0  0  0  0  0  0  0  0  0  0  0  0
    0.0000   -2.3061    0.0000 C   0  0  0  0  0  0  0  0  0  0  0  0
  1  2  2  0  0  0  0 
  1  3  1  0  0  0  0 
  2  4  1  0  0  0  0 
  5  3  2  0  0  0  0 
  3  6  1  0  0  0  0 
  4  7  2  0  0  0  0 
  7  5  1  0  0  0  0 
  6  8  1  0  0  0  0 
  8  9  2  0  0  0  0 
  8 10  1  0  0  0  0 
 10 11  2  0  0  0  0 
 10 12  1  0  0  0  0 
 11 13  1  0  0  0  0 
 11 14  1  0  0  0  0 
 15 12  2  0  0  0  0 
 14 16  2  0  0  0  0 
 16 15  1  0  0  0  0 
M  END
> <Name>
Benzamide, 2-hydroxy-N-phenyl-

> <Source>
DSSTox2DMolFile

> <Tox>
7.426

> <CAS>
87-17-2

$$$$

  CDK

 10  9  0  0  0  0  0  0  0  0999 V2000
    2.3047   -0.0000    0.0000 Cl  0  0  0  0  0  0  0  0  0  0  0  0
    2.3047   -1.3309    0.0000 C   0  0  0  0  0  0  0  0  0  0  0  0
    1.1523   -1.9935    0.0000 C   0  0  0  0  0  0  0  0  0  0  0  0
    3.4570   -1.9935    0.0000 C   0  0  0  0  0  0  0  0  0  0  0  0
    1.1523   -3.3245    0.0000 Cl  0  0  0  0  0  0  0  0  0  0  0  0
    0.0000   -1.3309    0.0000 Cl  0  0  0  0  0  0  0  0  0  0  0  0
    4.6093   -1.3309    0.0000 C   0  0  0  0  0  0  0  0  0  0  0  0
    3.4570   -3.3245    0.0000 Cl  0  0  0  0  0  0  0  0  0  0  0  0
    5.7617   -1.9935    0.0000 Cl  0  0  0  0  0  0  0  0  0  0  0  0
    4.6093   -0.0000    0.0000 Cl  0  0  0  0  0  0  0  0  0  0  0  0
  1  2  1  0  0  0  0 
  2  3  2  0  0  0  0 
  2  4  1  0  0  0  0 
  3  5  1  0  0  0  0 
  3  6  1  0  0  0  0 
  4  7  2  0  0  0  0 
  4  8  1  0  0  0  0 
  7  9  1  0  0  0  0 
  7 10  1  0  0  0  0 
M  END
> <Name>
1,3-Butadiene, 1,1,2,3,4,4-hexachloro-

> <Source>
DSSTox2DMolFile

> <Tox>
6.439

> <CAS>
87-68-3

$$$$

  CDK

 10 10  0  0  0  0  0  0  0  0999 V2000
    3.9896   -2.3044    0.0000 N   0  0  0  0  0  0  0  0  0  0  0  0
    4.6553   -3.4542    0.0000 O   0  0  0  0  0  0  0  0  0  0  0  0
    4.6553   -1.1499    0.0000 O   0  0  0  0  0  0  0  0  0  0  0  0
    2.6582   -2.3044    0.0000 C   0  0  0  0  0  0  0  0  0  0  0  0
    1.9971   -3.4542    0.0000 C   0  0  0  0  0  0  0  0  0  0  0  0
    1.9971   -1.1499    0.0000 C   0  0  0  0  0  0  0  0  0  0  0  0
    0.6657   -3.4542    0.0000 C   0  0  0  0  0  0  0  0  0  0  0  0
    0.6657   -1.1499    0.0000 C   0  0  0  0  0  0  0  0  0  0  0  0
    2.6582   -0.0000    0.0000 C   0  0  0  0  0  0  0  0  0  0  0  0
    0.0000   -2.3044    0.0000 C   0  0  0  0  0  0  0  0  0  0  0  0
  1  2  2  0  0  0  0 
  1  3  1  0  0  0  0 
  1  4  1  0  0  0  0 
  4  5  2  0  0  0  0 
  4  6  1  0  0  0  0 
  5  7  1  0  0  0  0 
  8  6  2  0  0  0  0 
  6  9  1  0  0  0  0 
  7 10  2  0  0  0  0 
 10  8  1  0  0  0  0 
M  CHG  1   1   1
M  CHG  1   3  -1
M  END
> <Name>
Benzene, 1-methyl-2-nitro-

> <Source>
DSSTox2DMolFile

> <Tox>
3.563

> <CAS>
88-72-2

$$$$

  CDK

 11 11  0  0  0  0  0  0  0  0999 V2000
    2.3101   -3.3181    0.0000 C   0  0  0  0  0  0  0  0  0  0  0  0
    1.1580   -3.9961    0.0000 C   0  0  0  0  0  0  0  0  0  0  0  0
    2.3101   -1.9921    0.0000 C   0  0  0  0  0  0  0  0  0  0  0  0
    3.4681   -3.9961    0.0000 O   0  0  0  0  0  0  0  0  0  0  0  0
    0.0000   -3.3181    0.0000 C   0  0  0  0  0  0  0  0  0  0  0  0
    1.1580   -5.3282    0.0000 C   0  0  0  0  0  0  0  0  0  0  0  0
    1.1580   -1.3140    0.0000 C   0  0  0  0  0  0  0  0  0  0  0  0
    0.0000   -1.9921    0.0000 C   0  0  0  0  0  0  0  0  0  0  0  0
    2.2921   -5.9822    0.0000 C   0  0  0  0  0  0  0  0  0  0  0  0
    0.0180   -6.0002    0.0000 C   0  0  0  0  0  0  0  0  0  0  0  0
    1.1580   -0.0000    0.0000 C   0  0  0  0  0  0  0  0  0  0  0  0
  1  2  1  0  0  0  0 
  1  3  2  0  0  0  0 
  1  4  1  0  0  0  0 
  2  5  2  0  0  0  0 
  2  6  1  0  0  0  0 
  3  7  1  0  0  0  0 
  5  8  1  0  0  0  0 
  6  9  1  0  0  0  0 
  6 10  1  0  0  0  0 
  8  7  2  0  0  0  0 
  7 11  1  0  0  0  0 
M  END
> <Name>
Phenol, 5-methyl-2-(1-methylethyl)-

> <Source>
DSSTox2DMolFile

> <Tox>
4.672

> <CAS>
89-83-8

$$$$

  CDK

 11 12  0  0  0  0  0  0  0  0999 V2000
    0.0000   -2.6579    0.0000 C   0  0  0  0  0  0  0  0  0  0  0  0
    1.1497   -1.9969    0.0000 C   0  0  0  0  0  0  0  0  0  0  0  0
    2.3041   -2.6579    0.0000 C   0  0  0  0  0  0  0  0  0  0  0  0
    1.1497   -0.6656    0.0000 C   0  0  0  0  0  0  0  0  0  0  0  0
    3.4538   -1.9969    0.0000 C   0  0  0  0  0  0  0  0  0  0  0  0
    2.3041   -3.9891    0.0000 C   0  0  0  0  0  0  0  0  0  0  0  0
    2.3041   -0.0000    0.0000 C   0  0  0  0  0  0  0  0  0  0  0  0
    3.4538   -0.6656    0.0000 C   0  0  0  0  0  0  0  0  0  0  0  0
    4.6082   -2.6579    0.0000 C   0  0  0  0  0  0  0  0  0  0  0  0
    3.4538   -4.6548    0.0000 C   0  0  0  0  0  0  0  0  0  0  0  0
    4.6082   -3.9891    0.0000 C   0  0  0  0  0  0  0  0  0  0  0  0
  1  2  1  0  0  0  0 
  2  3  2  0  0  0  0 
  2  4  1  0  0  0  0 
  3  5  1  0  0  0  0 
  3  6  1  0  0  0  0 
  7  4  2  0  0  0  0 
  5  8  2  0  0  0  0 
  5  9  1  0  0  0  0 
 10  6  2  0  0  0  0 
  8  7  1  0  0  0  0 
  9 11  2  0  0  0  0 
 11 10  1  0  0  0  0 
M  END
> <Name>
Naphthalene, 1-methyl-

> <Source>
DSSTox2DMolFile

> <Tox>
4.199

> <CAS>
90-12-0

$$$$

  CDK

 13 14  0  0  0  0  0  0  0  0999 V2000
    2.6607   -0.0000    0.0000 O   0  0  0  0  0  0  0  0  0  0  0  0
    1.9955   -1.1574    0.0000 C   0  0  0  0  0  0  0  0  0  0  0  0
    2.6607   -2.3082    0.0000 C   0  0  0  0  0  0  0  0  0  0  0  0
    0.6652   -1.1574    0.0000 C   0  0  0  0  0  0  0  0  0  0  0  0
    1.9955   -3.4589    0.0000 C   0  0  0  0  0  0  0  0  0  0  0  0
    3.9910   -2.3082    0.0000 C   0  0  0  0  0  0  0  0  0  0  0  0
    0.0000   -2.3082    0.0000 C   0  0  0  0  0  0  0  0  0  0  0  0
    0.6652   -3.4589    0.0000 C   0  0  0  0  0  0  0  0  0  0  0  0
    4.6562   -1.1574    0.0000 C   0  0  0  0  0  0  0  0  0  0  0  0
    4.6562   -3.4589    0.0000 C   0  0  0  0  0  0  0  0  0  0  0  0
    5.9866   -1.1574    0.0000 C   0  0  0  0  0  0  0  0  0  0  0  0
    5.9866   -3.4589    0.0000 C   0  0  0  0  0  0  0  0  0  0  0  0
    6.6517   -2.3082    0.0000 C   0  0  0  0  0  0  0  0  0  0  0  0
  1  2  1  0  0  0  0 
  2  3  2  0  0  0  0 
  2  4  1  0  0  0  0 
  3  5  1  0  0  0  0 
  3  6  1  0  0  0  0 
  7  4  2  0  0  0  0 
  5  8  2  0  0  0  0 
  6  9  2  0  0  0  0 
  6 10  1  0  0  0  0 
  8  7  1  0  0  0  0 
  9 11  1  0  0  0  0 
 12 10  2  0  0  0  0 
 11 13  2  0  0  0  0 
 13 12  1  0  0  0  0 
M  END
> <Name>
(1,1'-Biphenyl)-2-ol

> <Source>
DSSTox2DMolFile

> <Tox>
4.507

> <CAS>
90-43-7

$$$$

  CDK

 10 11  0  0  0  0  0  0  0  0999 V2000
    3.4558   -0.0000    0.0000 C   0  0  0  0  0  0  0  0  0  0  0  0
    2.3039   -0.6635    0.0000 C   0  0  0  0  0  0  0  0  0  0  0  0
    4.6078   -0.6635    0.0000 C   0  0  0  0  0  0  0  0  0  0  0  0
    2.3039   -1.9952    0.0000 C   0  0  0  0  0  0  0  0  0  0  0  0
    1.1519   -0.0000    0.0000 C   0  0  0  0  0  0  0  0  0  0  0  0
    4.6078   -1.9952    0.0000 C   0  0  0  0  0  0  0  0  0  0  0  0
    3.4558   -2.6587    0.0000 C   0  0  0  0  0  0  0  0  0  0  0  0
    1.1519   -2.6587    0.0000 C   0  0  0  0  0  0  0  0  0  0  0  0
    0.0000   -0.6635    0.0000 C   0  0  0  0  0  0  0  0  0  0  0  0
    0.0000   -1.9952    0.0000 C   0  0  0  0  0  0  0  0  0  0  0  0
  1  2  2  0  0  0  0 
  1  3  1  0  0  0  0 
  2  4  1  0  0  0  0 
  2  5  1  0  0  0  0 
  6  3  2  0  0  0  0 
  4  7  2  0  0  0  0 
  4  8  1  0  0  0  0 
  9  5  2  0  0  0  0 
  7  6  1  0  0  0  0 
  8 10  2  0  0  0  0 
 10  9  1  0  0  0  0 
M  END
> <Name>
Naphthalene, pure

> <Source>
DSSTox2DMolFile

> <Tox>
4.320

> <CAS>
91-20-3

$$$$

  CDK

 21 23  0  0  0  0  0  0  0  0999 V2000
   10.8609   -5.5935    0.0000 O   0  0  0  0  0  0  0  0  0  0  0  0
   12.0811   -5.0499    0.0000 C   0  0  0  0  0  0  0  0  0  0  0  0
    9.9790   -4.6029    0.0000 C   0  0  0  0  0  0  0  0  0  0  0  0
   11.9361   -3.7330    0.0000 O   0  0  0  0  0  0  0  0  0  0  0  0
   10.6434   -3.4552    0.0000 C   0  0  0  0  0  0  0  0  0  0  0  0
    8.6500   -4.6029    0.0000 C   0  0  0  0  0  0  0  0  0  0  0  0
    9.9790   -2.2954    0.0000 C   0  0  0  0  0  0  0  0  0  0  0  0
    7.9856   -3.4552    0.0000 C   0  0  0  0  0  0  0  0  0  0  0  0
    8.6500   -2.2954    0.0000 C   0  0  0  0  0  0  0  0  0  0  0  0
    6.6446   -3.4552    0.0000 C   0  0  0  0  0  0  0  0  0  0  0  0
    5.9801   -2.2954    0.0000 C   0  0  0  0  0  0  0  0  0  0  0  0
    4.6512   -2.2954    0.0000 C   0  0  0  0  0  0  0  0  0  0  0  0
    3.9867   -1.1477    0.0000 C   0  0  0  0  0  0  0  0  0  0  0  0
    2.6578   -1.1477    0.0000 C   0  0  0  0  0  0  0  0  0  0  0  0
    1.9934   -0.0000    0.0000 O   0  0  0  0  0  0  0  0  0  0  0  0
    1.9934   -2.2954    0.0000 N   0  0  0  0  0  0  0  0  0  0  0  0
    2.6578   -3.4552    0.0000 C   0  0  0  0  0  0  0  0  0  0  0  0
    0.6645   -2.2954    0.0000 C   0  0  0  0  0  0  0  0  0  0  0  0
    1.9934   -4.6029    0.0000 C   0  0  0  0  0  0  0  0  0  0  0  0
    0.0000   -3.4552    0.0000 C   0  0  0  0  0  0  0  0  0  0  0  0
    0.6645   -4.6029    0.0000 C   0  0  0  0  0  0  0  0  0  0  0  0
  1  2  1  0  0  0  0 
  1  3  1  0  0  0  0 
  2  4  1  0  0  0  0 
  5  3  1  0  0  0  0 
  6  3  2  0  0  0  0 
  4  5  1  0  0  0  0 
  5  7  2  0  0  0  0 
  8  6  1  0  0  0  0 
  7  9  1  0  0  0  0 
  9  8  2  0  0  0  0 
  8 10  1  0  0  0  0 
 10 11  2  0  0  0  0 
 11 12  1  0  0  0  0 
 12 13  2  0  0  0  0 
 13 14  1  0  0  0  0 
 14 15  2  0  0  0  0 
 14 16  1  0  0  0  0 
 16 17  1  0  0  0  0 
 16 18  1  0  0  0  0 
 17 19  1  0  0  0  0 
 20 18  1  0  0  0  0 
 19 21  1  0  0  0  0 
 21 20  1  0  0  0  0 
M  END
> <Name>
Piperidine, 1-(5-(1,3-benzodioxol-5-yl)-1-oxo-2,4-pentadienyl)-, (E,E)- (9CI)

> <Source>
DSSTox2DMolFile

> <Tox>
4.561

> <CAS>
94-62-2

$$$$

  CDK

  9 10  0  0  0  0  0  0  0  0999 V2000
    4.3506   -0.6613    0.0000 C   0  0  0  0  0  0  0  0  0  0  0  0
    4.3506   -1.9926    0.0000 C   0  0  0  0  0  0  0  0  0  0  0  0
    3.1977   -0.0000    0.0000 C   0  0  0  0  0  0  0  0  0  0  0  0
    3.1977   -2.6582    0.0000 C   0  0  0  0  0  0  0  0  0  0  0  0
    2.0448   -0.6613    0.0000 C   0  0  0  0  0  0  0  0  0  0  0  0
    2.0448   -1.9926    0.0000 C   0  0  0  0  0  0  0  0  0  0  0  0
    0.7831   -0.2523    0.0000 S   0  0  0  0  0  0  0  0  0  0  0  0
    0.7831   -2.4059    0.0000 N   0  0  0  0  0  0  0  0  0  0  0  0
    0.0000   -1.3269    0.0000 C   0  0  0  0  0  0  0  0  0  0  0  0
  1  2  2  0  0  0  0 
  1  3  1  0  0  0  0 
  2  4  1  0  0  0  0 
  5  3  2  0  0  0  0 
  4  6  2  0  0  0  0 
  6  5  1  0  0  0  0 
  7  5  1  0  0  0  0 
  6  8  1  0  0  0  0 
  9  7  1  0  0  0  0 
  8  9  2  0  0  0  0 
M  END
> <Name>
Benzothiazole

> <Source>
DSSTox2DMolFile

> <Tox>
3.325

> <CAS>
95-16-9

$$$$

  CDK

  8  8  0  0  0  0  0  0  0  0999 V2000
    0.0000   -2.3027    0.0000 Cl  0  0  0  0  0  0  0  0  0  0  0  0
    1.3289   -2.3027    0.0000 C   0  0  0  0  0  0  0  0  0  0  0  0
    1.9954   -1.1533    0.0000 C   0  0  0  0  0  0  0  0  0  0  0  0
    1.9954   -3.4560    0.0000 C   0  0  0  0  0  0  0  0  0  0  0  0
    3.3243   -1.1533    0.0000 C   0  0  0  0  0  0  0  0  0  0  0  0
    1.3289   -0.0000    0.0000 Cl  0  0  0  0  0  0  0  0  0  0  0  0
    3.3243   -3.4560    0.0000 C   0  0  0  0  0  0  0  0  0  0  0  0
    3.9907   -2.3027    0.0000 C   0  0  0  0  0  0  0  0  0  0  0  0
  1  2  1  0  0  0  0 
  2  3  2  0  0  0  0 
  2  4  1  0  0  0  0 
  3  5  1  0  0  0  0 
  3  6  1  0  0  0  0 
  7  4  2  0  0  0  0 
  5  8  2  0  0  0  0 
  8  7  1  0  0  0  0 
M  END
> <Name>
Benzene, 1,2-dichloro-

> <Source>
DSSTox2DMolFile

> <Tox>
3.411

> <CAS>
95-50-1

$$$$

  CDK

  8  8  0  0  0  0  0  0  0  0999 V2000
    0.0000   -2.3027    0.0000 N   0  0  0  0  0  0  0  0  0  0  0  0
    1.3289   -2.3027    0.0000 C   0  0  0  0  0  0  0  0  0  0  0  0
    1.9954   -1.1533    0.0000 C   0  0  0  0  0  0  0  0  0  0  0  0
    1.9954   -3.4560    0.0000 C   0  0  0  0  0  0  0  0  0  0  0  0
    1.3289   -0.0000    0.0000 Cl  0  0  0  0  0  0  0  0  0  0  0  0
    3.3243   -1.1533    0.0000 C   0  0  0  0  0  0  0  0  0  0  0  0
    3.3243   -3.4560    0.0000 C   0  0  0  0  0  0  0  0  0  0  0  0
    3.9907   -2.3027    0.0000 C   0  0  0  0  0  0  0  0  0  0  0  0
  1  2  1  0  0  0  0 
  2  3  2  0  0  0  0 
  2  4  1  0  0  0  0 
  3  5  1  0  0  0  0 
  3  6  1  0  0  0  0 
  7  4  2  0  0  0  0 
  6  8  2  0  0  0  0 
  8  7  1  0  0  0  0 
M  END
> <Name>
Benzenamine, 2-chloro-

> <Source>
DSSTox2DMolFile

> <Tox>
4.353

> <CAS>
95-51-2

$$$$

  CDK

  6  5  0  0  0  0  0  0  0  0999 V2000
    3.3247   -0.0000    0.0000 C   0  0  0  0  0  0  0  0  0  0  0  0
    1.9948   -0.0000    0.0000 C   0  0  0  0  0  0  0  0  0  0  0  0
    1.3299   -1.1537    0.0000 C   0  0  0  0  0  0  0  0  0  0  0  0
    0.0000   -1.1537    0.0000 O   0  0  0  0  0  0  0  0  0  0  0  0
    1.9948   -2.3040    0.0000 C   0  0  0  0  0  0  0  0  0  0  0  0
    3.3247   -2.3040    0.0000 C   0  0  0  0  0  0  0  0  0  0  0  0
  1  2  1  0  0  0  0 
  2  3  1  0  0  0  0 
  3  4  2  0  0  0  0 
  3  5  1  0  0  0  0 
  5  6  1  0  0  0  0 
M  END
> <Name>
3-Pentanone

> <Source>
DSSTox2DMolFile

> <Tox>
1.748

> <CAS>
96-22-0

$$$$

  CDK

 13 13  0  0  0  0  0  0  0  0999 V2000
    5.7563   -0.0000    0.0000 N   0  0  0  0  0  0  0  0  0  0  0  0
    4.6092   -0.6634    0.0000 C   0  0  0  0  0  0  0  0  0  0  0  0
    4.6092   -1.9902    0.0000 C   0  0  0  0  0  0  0  0  0  0  0  0
    3.4552   -0.0000    0.0000 C   0  0  0  0  0  0  0  0  0  0  0  0
    5.7563   -2.6605    0.0000 N   0  0  0  0  0  0  0  0  0  0  0  0
    3.4552   -2.6605    0.0000 C   0  0  0  0  0  0  0  0  0  0  0  0
    2.3011   -0.6634    0.0000 C   0  0  0  0  0  0  0  0  0  0  0  0
    6.9103   -1.9902    0.0000 O   0  0  0  0  0  0  0  0  0  0  0  0
    5.7563   -3.9873    0.0000 O   0  0  0  0  0  0  0  0  0  0  0  0
    2.3011   -1.9902    0.0000 C   0  0  0  0  0  0  0  0  0  0  0  0
    1.1540   -2.6605    0.0000 N   0  0  0  0  0  0  0  0  0  0  0  0
    0.0000   -1.9902    0.0000 O   0  0  0  0  0  0  0  0  0  0  0  0
    1.1540   -3.9873    0.0000 O   0  0  0  0  0  0  0  0  0  0  0  0
  1  2  1  0  0  0  0 
  2  3  2  0  0  0  0 
  2  4  1  0  0  0  0 
  3  5  1  0  0  0  0 
  3  6  1  0  0  0  0 
  7  4  2  0  0  0  0 
  5  8  1  0  0  0  0 
  5  9  2  0  0  0  0 
  6 10  2  0  0  0  0 
 10  7  1  0  0  0  0 
 10 11  1  0  0  0  0 
 11 12  1  0  0  0  0 
 11 13  2  0  0  0  0 
M  CHG  1   5   1
M  CHG  1   8  -1
M  CHG  1  11   1
M  CHG  1  12  -1
M  END
> <Name>
Benzenamine, 2,4-dinitro-

> <Source>
DSSTox2DMolFile

> <Tox>
4.084

> <CAS>
97-02-9

$$$$

  CDK

  9  9  0  0  0  0  0  0  0  0999 V2000
    2.6574   -0.0000    0.0000 C   0  0  0  0  0  0  0  0  0  0  0  0
    3.9884   -0.0000    0.0000 C   0  0  0  0  0  0  0  0  0  0  0  0
    1.9965   -1.1542    0.0000 C   0  0  0  0  0  0  0  0  0  0  0  0
    4.6539   -1.1542    0.0000 C   0  0  0  0  0  0  0  0  0  0  0  0
    2.6574   -2.3037    0.0000 C   0  0  0  0  0  0  0  0  0  0  0  0
    0.6655   -1.1542    0.0000 C   0  0  0  0  0  0  0  0  0  0  0  0
    3.9884   -2.3037    0.0000 C   0  0  0  0  0  0  0  0  0  0  0  0
    0.0000   -2.3037    0.0000 C   0  0  0  0  0  0  0  0  0  0  0  0
    0.0000   -0.0000    0.0000 C   0  0  0  0  0  0  0  0  0  0  0  0
  1  2  2  0  0  0  0 
  1  3  1  0  0  0  0 
  2  4  1  0  0  0  0 
  5  3  2  0  0  0  0 
  3  6  1  0  0  0  0 
  4  7  2  0  0  0  0 
  7  5  1  0  0  0  0 
  6  8  1  0  0  0  0 
  6  9  1  0  0  0  0 
M  END
> <Name>
Benzene, (1-methylethyl)-

> <Source>
DSSTox2DMolFile

> <Tox>
4.279

> <CAS>
98-82-8

$$$$

  CDK

 11 11  0  0  0  0  0  0  0  0999 V2000
    0.0000   -3.4525    0.0000 O   0  0  0  0  0  0  0  0  0  0  0  0
    0.6642   -2.3037    0.0000 N   0  0  0  0  0  0  0  0  0  0  0  0
    1.9925   -2.3037    0.0000 C   0  0  0  0  0  0  0  0  0  0  0  0
    0.0000   -1.1488    0.0000 O   0  0  0  0  0  0  0  0  0  0  0  0
    2.6567   -1.1488    0.0000 C   0  0  0  0  0  0  0  0  0  0  0  0
    2.6567   -3.4525    0.0000 C   0  0  0  0  0  0  0  0  0  0  0  0
    3.9910   -1.1488    0.0000 C   0  0  0  0  0  0  0  0  0  0  0  0
    3.9910   -3.4525    0.0000 C   0  0  0  0  0  0  0  0  0  0  0  0
    4.6552   -2.3037    0.0000 C   0  0  0  0  0  0  0  0  0  0  0  0
    4.6552   -0.0000    0.0000 N   0  0  0  0  0  0  0  0  0  0  0  0
    5.9835   -2.3037    0.0000 C   0  0  0  0  0  0  0  0  0  0  0  0
  1  2  2  0  0  0  0 
  2  3  1  0  0  0  0 
  2  4  1  0  0  0  0 
  3  5  2  0  0  0  0 
  3  6  1  0  0  0  0 
  5  7  1  0  0  0  0 
  8  6  2  0  0  0  0 
  7  9  2  0  0  0  0 
  7 10  1  0  0  0  0 
  9  8  1  0  0  0  0 
  9 11  1  0  0  0  0 
M  CHG  1   2   1
M  CHG  1   4  -1
M  END
> <Name>
Benzenamine, 2-methyl-5-nitro-

> <Source>
DSSTox2DMolFile

> <Tox>
3.337

> <CAS>
99-55-8

$$$$

  CDK

 10 10  0  0  0  0  0  0  0  0999 V2000
    2.1485   -0.0014    0.0153 C   0  0  0  0  0  0  0  0  0  0  0  0
    1.5661   -1.2021    0.1778 C   0  0  0  0  0  0  0  0  0  0  0  0
    1.3331    1.2499    0.0018 C   0  0  0  0  0  0  0  0  0  0  0  0
    3.6169    0.1606   -0.1158 C   0  0  0  0  0  0  0  0  0  0  0  0
    0.1276   -1.3159    0.3158 C   0  0  0  0  0  0  0  0  0  0  0  0
   -0.1057    1.0225   -0.4376 C   0  0  0  0  0  0  0  0  0  0  0  0
   -0.6751   -0.2724    0.0435 C   0  0  0  0  0  0  0  0  0  0  0  0
   -2.1693   -0.3738    0.1741 C   0  0  0  0  0  0  0  0  0  0  0  0
   -2.6976    0.7161    1.0956 C   0  0  0  0  0  0  0  0  0  0  0  0
   -2.8279   -0.2901   -1.1956 C   0  0  0  0  0  0  0  0  0  0  0  0
  1  2  2  0  0  0  0 
  1  3  1  0  0  0  0 
  1  4  1  0  0  0  0 
  2  5  1  0  0  0  0 
  6  3  1  0  0  0  0 
  5  7  2  0  0  0  0 
  7  6  1  0  0  0  0 
  7  8  1  0  0  0  0 
  8  9  1  0  0  0  0 
  8 10  1  0  0  0  0 
M  END
> <Name>
1,3-Cyclohexadiene, 1-methyl-4-(1-methylethyl)-

> <Source>
DougDB3DMolFile

> <Tox>
4.636

> <CAS>
99-86-5

$$$$

  CDK

 10 10  0  0  0  0  0  0  0  0999 V2000
    0.0000   -2.3031    0.0000 O   0  0  0  0  0  0  0  0  0  0  0  0
    0.6640   -1.1546    0.0000 N   0  0  0  0  0  0  0  0  0  0  0  0
    1.9921   -1.1546    0.0000 C   0  0  0  0  0  0  0  0  0  0  0  0
    0.0000   -0.0000    0.0000 O   0  0  0  0  0  0  0  0  0  0  0  0
    2.6561   -0.0000    0.0000 C   0  0  0  0  0  0  0  0  0  0  0  0
    2.6561   -2.3031    0.0000 C   0  0  0  0  0  0  0  0  0  0  0  0
    3.9901   -0.0000    0.0000 C   0  0  0  0  0  0  0  0  0  0  0  0
    3.9901   -2.3031    0.0000 C   0  0  0  0  0  0  0  0  0  0  0  0
    4.6542   -1.1546    0.0000 C   0  0  0  0  0  0  0  0  0  0  0  0
    5.9822   -1.1546    0.0000 N   0  0  0  0  0  0  0  0  0  0  0  0
  1  2  2  0  0  0  0 
  2  3  1  0  0  0  0 
  2  4  1  0  0  0  0 
  3  5  2  0  0  0  0 
  3  6  1  0  0  0  0 
  5  7  1  0  0  0  0 
  8  6  2  0  0  0  0 
  7  9  2  0  0  0  0 
  9  8  1  0  0  0  0 
  9 10  1  0  0  0  0 
M  CHG  1   2   1
M  CHG  1   4  -1
M  END
> <Name>
Benzenamine, 4-nitro-

> <Source>
DSSTox2DMolFile

> <Tox>
3.079

> <CAS>
100-01-6

$$$$

  CDK

 10 10  0  0  0  0  0  0  0  0999 V2000
    5.9822   -1.1546    0.0000 O   0  0  0  0  0  0  0  0  0  0  0  0
    4.6542   -1.1546    0.0000 C   0  0  0  0  0  0  0  0  0  0  0  0
    3.9901   -2.3031    0.0000 C   0  0  0  0  0  0  0  0  0  0  0  0
    3.9901   -0.0000    0.0000 C   0  0  0  0  0  0  0  0  0  0  0  0
    2.6561   -2.3031    0.0000 C   0  0  0  0  0  0  0  0  0  0  0  0
    2.6561   -0.0000    0.0000 C   0  0  0  0  0  0  0  0  0  0  0  0
    1.9921   -1.1546    0.0000 C   0  0  0  0  0  0  0  0  0  0  0  0
    0.6640   -1.1546    0.0000 N   0  0  0  0  0  0  0  0  0  0  0  0
    0.0000   -2.3031    0.0000 O   0  0  0  0  0  0  0  0  0  0  0  0
    0.0000   -0.0000    0.0000 O   0  0  0  0  0  0  0  0  0  0  0  0
  1  2  1  0  0  0  0 
  2  3  2  0  0  0  0 
  2  4  1  0  0  0  0 
  3  5  1  0  0  0  0 
  6  4  2  0  0  0  0 
  5  7  2  0  0  0  0 
  7  6  1  0  0  0  0 
  7  8  1  0  0  0  0 
  8  9  2  0  0  0  0 
  8 10  1  0  0  0  0 
M  CHG  1   8   1
M  CHG  1  10  -1
M  END
> <Name>
Phenol, 4-nitro-

> <Source>
DSSTox2DMolFile

> <Tox>
3.531

> <CAS>
100-02-7

$$$$

  CDK

  8  7  0  0  0  0  0  0  0  0999 V2000
    0.0000   -2.3042    0.0000 C   0  0  0  0  0  0  0  0  0  0  0  0
    1.3303   -2.3042    0.0000 C   0  0  0  0  0  0  0  0  0  0  0  0
    1.9955   -1.1547    0.0000 N   0  0  0  0  0  0  0  0  0  0  0  0
    3.3259   -1.1547    0.0000 C   0  0  0  0  0  0  0  0  0  0  0  0
    1.3303   -0.0000    0.0000 C   0  0  0  0  0  0  0  0  0  0  0  0
    3.9910   -2.3042    0.0000 C   0  0  0  0  0  0  0  0  0  0  0  0
    0.0000   -0.0000    0.0000 C   0  0  0  0  0  0  0  0  0  0  0  0
    5.3214   -2.3042    0.0000 O   0  0  0  0  0  0  0  0  0  0  0  0
  1  2  1  0  0  0  0 
  2  3  1  0  0  0  0 
  3  4  1  0  0  0  0 
  3  5  1  0  0  0  0 
  4  6  1  0  0  0  0 
  5  7  1  0  0  0  0 
  6  8  1  0  0  0  0 
M  END
> <Name>
Ethanol, 2-(diethylamino)-

> <Source>
DSSTox2DMolFile

> <Tox>
1.818

> <CAS>
100-37-8

$$$$

  CDK

  8  8  0  0  0  0  0  0  0  0999 V2000
    0.0000   -0.0000    0.0000 N   0  0  0  0  0  0  0  0  0  0  0  0
    0.6654   -1.1540    0.0000 C   0  0  0  0  0  0  0  0  0  0  0  0
    1.9962   -1.1540    0.0000 C   0  0  0  0  0  0  0  0  0  0  0  0
    2.6569   -0.0000    0.0000 C   0  0  0  0  0  0  0  0  0  0  0  0
    2.6569   -2.3033    0.0000 C   0  0  0  0  0  0  0  0  0  0  0  0
    3.9877   -0.0000    0.0000 C   0  0  0  0  0  0  0  0  0  0  0  0
    3.9877   -2.3033    0.0000 C   0  0  0  0  0  0  0  0  0  0  0  0
    4.6531   -1.1540    0.0000 C   0  0  0  0  0  0  0  0  0  0  0  0
  1  2  1  0  0  0  0 
  2  3  1  0  0  0  0 
  3  4  2  0  0  0  0 
  3  5  1  0  0  0  0 
  4  6  1  0  0  0  0 
  7  5  2  0  0  0  0 
  6  8  2  0  0  0  0 
  8  7  1  0  0  0  0 
M  END
> <Name>
Benzenemethanamine

> <Source>
DSSTox2DMolFile

> <Tox>
3.021

> <CAS>
100-46-9

$$$$

  CDK

  8  8  0  0  0  0  0  0  0  0999 V2000
    0.0000   -1.1545    0.0000 N   0  0  0  0  0  0  0  0  0  0  0  0
    1.3300   -1.1545    0.0000 C   0  0  0  0  0  0  0  0  0  0  0  0
    2.6600   -1.1545    0.0000 C   0  0  0  0  0  0  0  0  0  0  0  0
    3.3250   -0.0000    0.0000 C   0  0  0  0  0  0  0  0  0  0  0  0
    3.3250   -2.3036    0.0000 C   0  0  0  0  0  0  0  0  0  0  0  0
    4.6551   -0.0000    0.0000 C   0  0  0  0  0  0  0  0  0  0  0  0
    4.6551   -2.3036    0.0000 C   0  0  0  0  0  0  0  0  0  0  0  0
    5.3201   -1.1545    0.0000 C   0  0  0  0  0  0  0  0  0  0  0  0
  1  2  3  0  0  0  0 
  2  3  1  0  0  0  0 
  3  4  2  0  0  0  0 
  3  5  1  0  0  0  0 
  4  6  1  0  0  0  0 
  7  5  2  0  0  0  0 
  6  8  2  0  0  0  0 
  8  7  1  0  0  0  0 
M  END
> <Name>
Benzonitrile

> <Source>
DSSTox2DMolFile

> <Tox>
3.002

> <CAS>
100-47-0

$$$$

  CDK

  8  8  0  0  0  0  0  0  0  0999 V2000
    0.0000   -0.0000    0.0000 O   0  0  0  0  0  0  0  0  0  0  0  0
    0.6654   -1.1540    0.0000 C   0  0  0  0  0  0  0  0  0  0  0  0
    1.9962   -1.1540    0.0000 C   0  0  0  0  0  0  0  0  0  0  0  0
    2.6569   -0.0000    0.0000 C   0  0  0  0  0  0  0  0  0  0  0  0
    2.6569   -2.3033    0.0000 C   0  0  0  0  0  0  0  0  0  0  0  0
    3.9877   -0.0000    0.0000 C   0  0  0  0  0  0  0  0  0  0  0  0
    3.9877   -2.3033    0.0000 C   0  0  0  0  0  0  0  0  0  0  0  0
    4.6531   -1.1540    0.0000 C   0  0  0  0  0  0  0  0  0  0  0  0
  1  2  1  0  0  0  0 
  2  3  1  0  0  0  0 
  3  4  2  0  0  0  0 
  3  5  1  0  0  0  0 
  4  6  1  0  0  0  0 
  7  5  2  0  0  0  0 
  6  8  2  0  0  0  0 
  8  7  1  0  0  0  0 
M  END
> <Name>
Benzenemethanol

> <Source>
DSSTox2DMolFile

> <Tox>
2.371

> <CAS>
100-51-6

$$$$

  CDK

  8  8  0  0  0  0  0  0  0  0999 V2000
    0.0000   -0.0000    0.0000 O   0  0  0  0  0  0  0  0  0  0  0  0
    0.6654   -1.1540    0.0000 C   0  0  0  0  0  0  0  0  0  0  0  0
    1.9962   -1.1540    0.0000 C   0  0  0  0  0  0  0  0  0  0  0  0
    2.6569   -0.0000    0.0000 C   0  0  0  0  0  0  0  0  0  0  0  0
    2.6569   -2.3033    0.0000 C   0  0  0  0  0  0  0  0  0  0  0  0
    3.9877   -0.0000    0.0000 C   0  0  0  0  0  0  0  0  0  0  0  0
    3.9877   -2.3033    0.0000 C   0  0  0  0  0  0  0  0  0  0  0  0
    4.6531   -1.1540    0.0000 C   0  0  0  0  0  0  0  0  0  0  0  0
  1  2  2  0  0  0  0 
  2  3  1  0  0  0  0 
  3  4  2  0  0  0  0 
  3  5  1  0  0  0  0 
  4  6  1  0  0  0  0 
  7  5  2  0  0  0  0 
  6  8  2  0  0  0  0 
  8  7  1  0  0  0  0 
M  END
> <Name>
Benzaldehyde

> <Source>
DSSTox2DMolFile

> <Tox>
3.919

> <CAS>
100-52-7

$$$$

  CDK

 14 15  0  0  0  0  0  0  0  0999 V2000
    0.0000   -2.6721    0.0000 Br  0  0  0  0  0  0  0  0  0  0  0  0
    1.1509   -1.9960    0.0000 C   0  0  0  0  0  0  0  0  0  0  0  0
    2.3019   -2.6721    0.0000 C   0  0  0  0  0  0  0  0  0  0  0  0
    1.1509   -0.6680    0.0000 C   0  0  0  0  0  0  0  0  0  0  0  0
    3.4367   -1.9960    0.0000 C   0  0  0  0  0  0  0  0  0  0  0  0
    2.3019   -0.0000    0.0000 C   0  0  0  0  0  0  0  0  0  0  0  0
    3.4367   -0.6680    0.0000 C   0  0  0  0  0  0  0  0  0  0  0  0
    4.5957   -0.0000    0.0000 O   0  0  0  0  0  0  0  0  0  0  0  0
    5.7467   -0.6680    0.0000 C   0  0  0  0  0  0  0  0  0  0  0  0
    6.8976   -0.0000    0.0000 C   0  0  0  0  0  0  0  0  0  0  0  0
    5.7467   -1.9960    0.0000 C   0  0  0  0  0  0  0  0  0  0  0  0
    8.0486   -0.6680    0.0000 C   0  0  0  0  0  0  0  0  0  0  0  0
    6.8976   -2.6721    0.0000 C   0  0  0  0  0  0  0  0  0  0  0  0
    8.0486   -1.9960    0.0000 C   0  0  0  0  0  0  0  0  0  0  0  0
  1  2  1  0  0  0  0 
  3  2  1  0  0  0  0 
  4  2  2  0  0  0  0 
  5  3  2  0  0  0  0 
  6  4  1  0  0  0  0 
  7  5  1  0  0  0  0 
  7  6  2  0  0  0  0 
  7  8  1  0  0  0  0 
  9  8  1  0  0  0  0 
 10  9  1  0  0  0  0 
  9 11  2  0  0  0  0 
 12 10  2  0  0  0  0 
 13 11  1  0  0  0  0 
 12 14  1  0  0  0  0 
 14 13  2  0  0  0  0 
M  END
> <Name>
Ether, p-bromophenyl phenyl (8CI)

> <Source>
DSSTox2DMolFile

> <Tox>
5.643

> <CAS>
101-55-3

$$$$

  CDK

 10  9  0  0  0  0  0  0  0  0999 V2000
    0.0000   -3.4540    0.0000 C   0  0  0  0  0  0  0  0  0  0  0  0
    0.6645   -2.3047    0.0000 C   0  0  0  0  0  0  0  0  0  0  0  0
    1.9934   -2.3047    0.0000 C   0  0  0  0  0  0  0  0  0  0  0  0
    2.6578   -1.1493    0.0000 N   0  0  0  0  0  0  0  0  0  0  0  0
    1.9934   -0.0000    0.0000 C   0  0  0  0  0  0  0  0  0  0  0  0
    3.9928   -1.1493    0.0000 C   0  0  0  0  0  0  0  0  0  0  0  0
    0.6645   -0.0000    0.0000 C   0  0  0  0  0  0  0  0  0  0  0  0
    4.6572   -2.3047    0.0000 C   0  0  0  0  0  0  0  0  0  0  0  0
    0.0000   -1.1493    0.0000 C   0  0  0  0  0  0  0  0  0  0  0  0
    5.9861   -2.3047    0.0000 C   0  0  0  0  0  0  0  0  0  0  0  0
  1  2  1  0  0  0  0 
  2  3  1  0  0  0  0 
  3  4  1  0  0  0  0 
  4  5  1  0  0  0  0 
  4  6  1  0  0  0  0 
  5  7  1  0  0  0  0 
  6  8  1  0  0  0  0 
  7  9  1  0  0  0  0 
  8 10  1  0  0  0  0 
M  END
> <Name>
1-Propanamine, N,N-dipropyl-

> <Source>
DSSTox2DMolFile

> <Tox>
3.449

> <CAS>
102-69-2

$$$$

  CDK

 10 10  0  0  0  0  0  0  0  0999 V2000
    1.1520   -0.6682    0.0000 C   0  0  0  0  0  0  0  0  0  0  0  0
    1.1520   -1.9988    0.0000 N   0  0  0  0  0  0  0  0  0  0  0  0
    0.0000   -2.6612    0.0000 C   0  0  0  0  0  0  0  0  0  0  0  0
    2.3041   -2.6612    0.0000 C   0  0  0  0  0  0  0  0  0  0  0  0
    3.4561   -1.9988    0.0000 C   0  0  0  0  0  0  0  0  0  0  0  0
    3.4561   -0.6682    0.0000 C   0  0  0  0  0  0  0  0  0  0  0  0
    4.6082   -2.6612    0.0000 C   0  0  0  0  0  0  0  0  0  0  0  0
    4.6082   -0.0000    0.0000 C   0  0  0  0  0  0  0  0  0  0  0  0
    5.7602   -1.9988    0.0000 C   0  0  0  0  0  0  0  0  0  0  0  0
    5.7602   -0.6682    0.0000 C   0  0  0  0  0  0  0  0  0  0  0  0
  1  2  1  0  0  0  0 
  2  3  1  0  0  0  0 
  2  4  1  0  0  0  0 
  4  5  1  0  0  0  0 
  5  6  2  0  0  0  0 
  5  7  1  0  0  0  0 
  6  8  1  0  0  0  0 
  9  7  2  0  0  0  0 
  8 10  2  0  0  0  0 
 10  9  1  0  0  0  0 
M  END
> <Name>
Benzenemethanamine, N,N-dimethyl-

> <Source>
DSSTox2DMolFile

> <Tox>
3.554

> <CAS>
103-83-3

$$$$

  CDK

 11 11  0  0  0  0  0  0  0  0999 V2000
    3.8512   -1.8702    0.0000 C   0  0  0  0  0  0  0  0  0  0  0  0
    2.9346   -2.8163    0.0000 C   0  0  0  0  0  0  0  0  0  0  0  0
    3.5407   -0.5987    0.0000 C   0  0  0  0  0  0  0  0  0  0  0  0
    5.1522   -2.2102    0.0000 N   0  0  0  0  0  0  0  0  0  0  0  0
    1.6410   -2.4689    0.0000 C   0  0  0  0  0  0  0  0  0  0  0  0
    2.2397   -0.2587    0.0000 C   0  0  0  0  0  0  0  0  0  0  0  0
    6.0983   -1.2862    0.0000 C   0  0  0  0  0  0  0  0  0  0  0  0
    1.2936   -1.2049    0.0000 C   0  0  0  0  0  0  0  0  0  0  0  0
    5.7583   -0.0000    0.0000 C   0  0  0  0  0  0  0  0  0  0  0  0
    7.3919   -1.6114    0.0000 O   0  0  0  0  0  0  0  0  0  0  0  0
    0.0000   -0.8575    0.0000 O   0  0  0  0  0  0  0  0  0  0  0  0
  1  2  2  0  0  0  0 
  1  3  1  0  0  0  0 
  1  4  1  0  0  0  0 
  2  5  1  0  0  0  0 
  3  6  2  0  0  0  0 
  4  7  1  0  0  0  0 
  5  8  2  0  0  0  0 
  6  8  1  0  0  0  0 
  7  9  1  0  0  0  0 
  7 10  2  0  0  0  0 
  8 11  1  0  0  0  0 
M  END
> <Name>
Acetamide, N-(4-hydroxyphenyl)-

> <Source>
DSSTox2DMolFile

> <Tox>
2.269

> <CAS>
103-90-2

$$$$

  CDK

 11 11  0  0  0  0  0  0  0  0999 V2000
    8.0641   -0.0000    0.0000 N   0  0  0  0  0  0  0  0  0  0  0  0
    6.9109   -0.6693    0.0000 C   0  0  0  0  0  0  0  0  0  0  0  0
    6.9109   -1.9999    0.0000 C   0  0  0  0  0  0  0  0  0  0  0  0
    5.7578   -0.0000    0.0000 C   0  0  0  0  0  0  0  0  0  0  0  0
    5.7578   -2.6612    0.0000 C   0  0  0  0  0  0  0  0  0  0  0  0
    4.6046   -0.6693    0.0000 C   0  0  0  0  0  0  0  0  0  0  0  0
    4.6046   -1.9999    0.0000 C   0  0  0  0  0  0  0  0  0  0  0  0
    3.4595   -2.6612    0.0000 C   0  0  0  0  0  0  0  0  0  0  0  0
    2.3063   -1.9999    0.0000 C   0  0  0  0  0  0  0  0  0  0  0  0
    1.1532   -2.6612    0.0000 C   0  0  0  0  0  0  0  0  0  0  0  0
    0.0000   -1.9999    0.0000 C   0  0  0  0  0  0  0  0  0  0  0  0
  1  2  1  0  0  0  0 
  2  3  2  0  0  0  0 
  2  4  1  0  0  0  0 
  3  5  1  0  0  0  0 
  6  4  2  0  0  0  0 
  5  7  2  0  0  0  0 
  7  6  1  0  0  0  0 
  7  8  1  0  0  0  0 
  8  9  1  0  0  0  0 
  9 10  1  0  0  0  0 
 10 11  1  0  0  0  0 
M  END
> <Name>
Benzenamine, 4-butyl-

> <Source>
DSSTox2DMolFile

> <Tox>
4.165

> <CAS>
104-13-2

$$$$

  CDK

  9  9  0  0  0  0  0  0  0  0999 V2000
    4.6082   -0.0000    0.0000 O   0  0  0  0  0  0  0  0  0  0  0  0
    3.4561   -0.6636    0.0000 C   0  0  0  0  0  0  0  0  0  0  0  0
    3.4561   -1.9953    0.0000 C   0  0  0  0  0  0  0  0  0  0  0  0
    2.3041   -0.0000    0.0000 C   0  0  0  0  0  0  0  0  0  0  0  0
    4.6082   -2.6589    0.0000 C   0  0  0  0  0  0  0  0  0  0  0  0
    2.3041   -2.6589    0.0000 C   0  0  0  0  0  0  0  0  0  0  0  0
    1.1520   -0.6636    0.0000 C   0  0  0  0  0  0  0  0  0  0  0  0
    1.1520   -1.9953    0.0000 C   0  0  0  0  0  0  0  0  0  0  0  0
    0.0000   -2.6589    0.0000 C   0  0  0  0  0  0  0  0  0  0  0  0
  1  2  1  0  0  0  0 
  2  3  2  0  0  0  0 
  2  4  1  0  0  0  0 
  3  5  1  0  0  0  0 
  3  6  1  0  0  0  0 
  7  4  2  0  0  0  0 
  6  8  2  0  0  0  0 
  8  7  1  0  0  0  0 
  8  9  1  0  0  0  0 
M  END
> <Name>
Phenol, 2,4-dimethyl-

> <Source>
DSSTox2DMolFile

> <Tox>
3.856

> <CAS>
105-67-9

$$$$

  CDK

  8  8  0  0  0  0  0  0  0  0999 V2000
    0.0000   -1.1545    0.0000 C   0  0  0  0  0  0  0  0  0  0  0  0
    1.3300   -1.1545    0.0000 C   0  0  0  0  0  0  0  0  0  0  0  0
    1.9950   -0.0000    0.0000 C   0  0  0  0  0  0  0  0  0  0  0  0
    1.9950   -2.3036    0.0000 C   0  0  0  0  0  0  0  0  0  0  0  0
    3.3250   -0.0000    0.0000 C   0  0  0  0  0  0  0  0  0  0  0  0
    3.3250   -2.3036    0.0000 C   0  0  0  0  0  0  0  0  0  0  0  0
    3.9900   -1.1545    0.0000 C   0  0  0  0  0  0  0  0  0  0  0  0
    5.3201   -1.1545    0.0000 C   0  0  0  0  0  0  0  0  0  0  0  0
  1  2  1  0  0  0  0 
  2  3  2  0  0  0  0 
  2  4  1  0  0  0  0 
  3  5  1  0  0  0  0 
  6  4  2  0  0  0  0 
  5  7  2  0  0  0  0 
  7  6  1  0  0  0  0 
  7  8  1  0  0  0  0 
M  END
> <Name>
Benzene, 1,4-dimethyl-

> <Source>
DSSTox2DMolFile

> <Tox>
4.102

> <CAS>
106-42-3

$$$$

  CDK

  8  8  0  0  0  0  0  0  0  0999 V2000
    0.0000   -1.1545    0.0000 Cl  0  0  0  0  0  0  0  0  0  0  0  0
    1.3300   -1.1545    0.0000 C   0  0  0  0  0  0  0  0  0  0  0  0
    1.9950   -0.0000    0.0000 C   0  0  0  0  0  0  0  0  0  0  0  0
    1.9950   -2.3036    0.0000 C   0  0  0  0  0  0  0  0  0  0  0  0
    3.3250   -0.0000    0.0000 C   0  0  0  0  0  0  0  0  0  0  0  0
    3.3250   -2.3036    0.0000 C   0  0  0  0  0  0  0  0  0  0  0  0
    3.9900   -1.1545    0.0000 C   0  0  0  0  0  0  0  0  0  0  0  0
    5.3201   -1.1545    0.0000 Cl  0  0  0  0  0  0  0  0  0  0  0  0
  1  2  1  0  0  0  0 
  2  3  2  0  0  0  0 
  2  4  1  0  0  0  0 
  3  5  1  0  0  0  0 
  6  4  2  0  0  0  0 
  5  7  2  0  0  0  0 
  7  6  1  0  0  0  0 
  7  8  1  0  0  0  0 
M  END
> <Name>
Benzene, 1,4-dichloro-

> <Source>
DSSTox2DMolFile

> <Tox>
4.322

> <CAS>
106-46-7

$$$$

  CDK

  8  8  0  0  0  0  0  0  0  0999 V2000
    0.0000   -1.1545    0.0000 N   0  0  0  0  0  0  0  0  0  0  0  0
    1.3300   -1.1545    0.0000 C   0  0  0  0  0  0  0  0  0  0  0  0
    1.9950   -0.0000    0.0000 C   0  0  0  0  0  0  0  0  0  0  0  0
    1.9950   -2.3036    0.0000 C   0  0  0  0  0  0  0  0  0  0  0  0
    3.3250   -0.0000    0.0000 C   0  0  0  0  0  0  0  0  0  0  0  0
    3.3250   -2.3036    0.0000 C   0  0  0  0  0  0  0  0  0  0  0  0
    3.9900   -1.1545    0.0000 C   0  0  0  0  0  0  0  0  0  0  0  0
    5.3201   -1.1545    0.0000 Cl  0  0  0  0  0  0  0  0  0  0  0  0
  1  2  1  0  0  0  0 
  2  3  2  0  0  0  0 
  2  4  1  0  0  0  0 
  3  5  1  0  0  0  0 
  6  4  2  0  0  0  0 
  5  7  2  0  0  0  0 
  7  6  1  0  0  0  0 
  7  8  1  0  0  0  0 
M  END
> <Name>
Benzenamine, 4-chloro-

> <Source>
DSSTox2DMolFile

> <Tox>
3.620

> <CAS>
106-47-8

$$$$

  CDK

  8  8  0  0  0  0  0  0  0  0999 V2000
    0.0000   -1.1545    0.0000 N   0  0  0  0  0  0  0  0  0  0  0  0
    1.3300   -1.1545    0.0000 C   0  0  0  0  0  0  0  0  0  0  0  0
    1.9950   -0.0000    0.0000 C   0  0  0  0  0  0  0  0  0  0  0  0
    1.9950   -2.3036    0.0000 C   0  0  0  0  0  0  0  0  0  0  0  0
    3.3250   -0.0000    0.0000 C   0  0  0  0  0  0  0  0  0  0  0  0
    3.3250   -2.3036    0.0000 C   0  0  0  0  0  0  0  0  0  0  0  0
    3.9900   -1.1545    0.0000 C   0  0  0  0  0  0  0  0  0  0  0  0
    5.3201   -1.1545    0.0000 C   0  0  0  0  0  0  0  0  0  0  0  0
  1  2  1  0  0  0  0 
  2  3  2  0  0  0  0 
  2  4  1  0  0  0  0 
  3  5  1  0  0  0  0 
  6  4  2  0  0  0  0 
  5  7  2  0  0  0  0 
  7  6  1  0  0  0  0 
  7  8  1  0  0  0  0 
M  END
> <Name>
Benzenamine, 4-methyl-

> <Source>
DSSTox2DMolFile

> <Tox>
2.827

> <CAS>
106-49-0

$$$$

  CDK

  5  5  0  0  0  0  0  0  0  0999 V2000
    0.0000   -1.1519    0.0000 Cl  0  0  0  0  0  0  0  0  0  0  0  0
    1.1519   -1.8168    0.0000 C   0  0  0  0  0  0  0  0  0  0  0  0
    2.3037   -1.1519    0.0000 C   0  0  0  0  0  0  0  0  0  0  0  0
    2.9687   -0.0000    0.0000 C   0  0  0  0  0  0  0  0  0  0  0  0
    3.6336   -1.1519    0.0000 O   0  0  0  0  0  0  0  0  0  0  0  0
  1  2  1  0  0  0  0 
  2  3  1  0  0  0  0 
  3  4  1  0  0  0  0 
  3  5  1  0  0  0  0 
  4  5  1  0  0  0  0 
M  END
> <Name>
Propane, 1-chloro-2,3-epoxy-

> <Source>
DSSTox2DMolFile

> <Tox>
3.862

> <CAS>
106-89-8

$$$$

  CDK

  4  3  0  0  0  0  0  0  0  0999 V2000
    0.0000   -0.0000    0.0000 Br  0  0  0  0  0  0  0  0  0  0  0  0
    1.1513   -0.6638    0.0000 C   0  0  0  0  0  0  0  0  0  0  0  0
    2.3061   -0.0000    0.0000 C   0  0  0  0  0  0  0  0  0  0  0  0
    3.4575   -0.6638    0.0000 C   0  0  0  0  0  0  0  0  0  0  0  0
  1  2  1  0  0  0  0 
  2  3  1  0  0  0  0 
  3  4  1  0  0  0  0 
M  END
> <Name>
Propane, 1-bromo-

> <Source>
DSSTox2DMolFile

> <Tox>
3.262

> <CAS>
106-94-5

$$$$

  CDK

  4  3  0  0  0  0  0  0  0  0999 V2000
    0.0000   -0.0000    0.0000 Cl  0  0  0  0  0  0  0  0  0  0  0  0
    1.1513   -0.6638    0.0000 C   0  0  0  0  0  0  0  0  0  0  0  0
    2.3061   -0.0000    0.0000 C   0  0  0  0  0  0  0  0  0  0  0  0
    3.4575   -0.6638    0.0000 O   0  0  0  0  0  0  0  0  0  0  0  0
  1  2  1  0  0  0  0 
  2  3  1  0  0  0  0 
  3  4  1  0  0  0  0 
M  END
> <Name>
Ethanol, 2-chloro-

> <Source>
DSSTox2DMolFile

> <Tox>
3.141

> <CAS>
107-07-3

$$$$

  CDK

  7  7  0  0  0  0  0  0  0  0999 V2000
    1.9958   -0.0000    0.0000 C   0  0  0  0  0  0  0  0  0  0  0  0
    3.3250   -0.0000    0.0000 C   0  0  0  0  0  0  0  0  0  0  0  0
    1.3292   -1.1496    0.0000 C   0  0  0  0  0  0  0  0  0  0  0  0
    3.9916   -1.1496    0.0000 C   0  0  0  0  0  0  0  0  0  0  0  0
    1.9958   -2.3032    0.0000 C   0  0  0  0  0  0  0  0  0  0  0  0
    0.0000   -1.1496    0.0000 O   0  0  0  0  0  0  0  0  0  0  0  0
    3.3250   -2.3032    0.0000 C   0  0  0  0  0  0  0  0  0  0  0  0
  1  2  1  0  0  0  0 
  1  3  1  0  0  0  0 
  2  4  1  0  0  0  0 
  5  3  1  0  0  0  0 
  3  6  1  0  0  0  0 
  4  7  1  0  0  0  0 
  7  5  1  0  0  0  0 
M  END
> <Name>
Cyclohexanol

> <Source>
DSSTox2DMolFile

> <Tox>
2.070

> <CAS>
108-93-0

$$$$

  CDK

  5  4  0  0  0  0  0  0  0  0999 V2000
    0.0000   -0.6638    0.0000 N   0  0  0  0  0  0  0  0  0  0  0  0
    1.1525   -0.0000    0.0000 C   0  0  0  0  0  0  0  0  0  0  0  0
    2.3050   -0.6638    0.0000 C   0  0  0  0  0  0  0  0  0  0  0  0
    3.4575   -0.0000    0.0000 C   0  0  0  0  0  0  0  0  0  0  0  0
    4.6099   -0.6638    0.0000 N   0  0  0  0  0  0  0  0  0  0  0  0
  1  2  1  0  0  0  0 
  2  3  1  0  0  0  0 
  3  4  1  0  0  0  0 
  4  5  1  0  0  0  0 
M  END
> <Name>
Trimethylenediamine

> <Source>
DSSTox2DMolFile

> <Tox>
1.794

> <CAS>
109-76-2

$$$$

  CDK

  8  7  0  0  0  0  0  0  0  0999 V2000
    3.4445   -0.6530    0.0000 O   0  0  0  0  0  0  0  0  0  0  0  0
    3.4445   -1.9867    0.0000 C   0  0  0  0  0  0  0  0  0  0  0  0
    4.5989   -2.6581    0.0000 O   0  0  0  0  0  0  0  0  0  0  0  0
    2.2902   -2.6581    0.0000 C   0  0  0  0  0  0  0  0  0  0  0  0
    1.1359   -1.9867    0.0000 C   0  0  0  0  0  0  0  0  0  0  0  0
    1.1359   -0.6530    0.0000 C   0  0  0  0  0  0  0  0  0  0  0  0
    2.2902   -0.0000    0.0000 O   0  0  0  0  0  0  0  0  0  0  0  0
    0.0000   -0.0000    0.0000 O   0  0  0  0  0  0  0  0  0  0  0  0
  1  2  2  0  0  0  0 
  2  3  1  0  0  0  0 
  2  4  1  0  0  0  0 
  4  5  2  0  0  0  0 
  5  6  1  0  0  0  0 
  6  7  1  0  0  0  0 
  6  8  2  0  0  0  0 
M  END
> <Name>
2-Butenedioic acid (Z)- (9CI)

> <Source>
DSSTox2DMolFile

> <Tox>
4.366

> <CAS>
110-16-7

$$$$

  CDK

  6  5  0  0  0  0  0  0  0  0999 V2000
    0.0000   -0.6630    0.0000 C   0  0  0  0  0  0  0  0  0  0  0  0
    1.1530   -0.0000    0.0000 C   0  0  0  0  0  0  0  0  0  0  0  0
    2.3060   -0.6630    0.0000 C   0  0  0  0  0  0  0  0  0  0  0  0
    3.4590   -0.0000    0.0000 C   0  0  0  0  0  0  0  0  0  0  0  0
    4.6119   -0.6630    0.0000 C   0  0  0  0  0  0  0  0  0  0  0  0
    5.7649   -0.0000    0.0000 N   0  0  0  0  0  0  0  0  0  0  0  0
  1  2  1  0  0  0  0 
  2  3  1  0  0  0  0 
  3  4  1  0  0  0  0 
  4  5  1  0  0  0  0 
  5  6  1  0  0  0  0 
M  END
> <Name>
1-Pentanamine

> <Source>
DSSTox2DMolFile

> <Tox>
2.692

> <CAS>
110-58-7

$$$$

  CDK

  6  5  0  0  0  0  0  0  0  0999 V2000
    0.6655   -1.1499    0.0000 C   0  0  0  0  0  0  0  0  0  0  0  0
    0.0000   -0.0000    0.0000 O   0  0  0  0  0  0  0  0  0  0  0  0
    1.9964   -1.1499    0.0000 C   0  0  0  0  0  0  0  0  0  0  0  0
    3.3273   -1.1499    0.0000 C   0  0  0  0  0  0  0  0  0  0  0  0
    4.6583   -1.1499    0.0000 C   0  0  0  0  0  0  0  0  0  0  0  0
    5.3237   -0.0000    0.0000 O   0  0  0  0  0  0  0  0  0  0  0  0
  1  2  1  0  0  0  0 
  1  3  1  0  0  0  0 
  3  4  3  0  0  0  0 
  4  5  1  0  0  0  0 
  5  6  1  0  0  0  0 
M  END
> <Name>
2-Butyne-1,4-diol

> <Source>
DSSTox2DMolFile

> <Tox>
3.206

> <CAS>
110-65-6

$$$$

  CDK

  6  6  0  0  0  0  0  0  0  0999 V2000
    2.3036   -1.9950    0.0000 N   0  0  0  0  0  0  0  0  0  0  0  0
    1.1518   -2.6600    0.0000 C   0  0  0  0  0  0  0  0  0  0  0  0
    2.3036   -0.6650    0.0000 C   0  0  0  0  0  0  0  0  0  0  0  0
    0.0000   -1.9950    0.0000 C   0  0  0  0  0  0  0  0  0  0  0  0
    1.1518   -0.0000    0.0000 C   0  0  0  0  0  0  0  0  0  0  0  0
    0.0000   -0.6650    0.0000 C   0  0  0  0  0  0  0  0  0  0  0  0
  1  2  2  0  0  0  0 
  1  3  1  0  0  0  0 
  2  4  1  0  0  0  0 
  5  3  2  0  0  0  0 
  4  6  2  0  0  0  0 
  6  5  1  0  0  0  0 
M  END
> <Name>
Pyridine

> <Source>
DSSTox2DMolFile

> <Tox>
2.914

> <CAS>
110-86-1

$$$$

  CDK

  9  8  0  0  0  0  0  0  0  0999 V2000
    1.9962   -2.3033    0.0000 C   0  0  0  0  0  0  0  0  0  0  0  0
    1.3308   -1.1553    0.0000 C   0  0  0  0  0  0  0  0  0  0  0  0
    0.0000   -1.1553    0.0000 O   0  0  0  0  0  0  0  0  0  0  0  0
    1.9962   -0.0000    0.0000 C   0  0  0  0  0  0  0  0  0  0  0  0
    3.3271   -0.0000    0.0000 C   0  0  0  0  0  0  0  0  0  0  0  0
    3.9852   -1.1553    0.0000 C   0  0  0  0  0  0  0  0  0  0  0  0
    5.3160   -1.1553    0.0000 C   0  0  0  0  0  0  0  0  0  0  0  0
    5.9814   -2.3033    0.0000 C   0  0  0  0  0  0  0  0  0  0  0  0
    7.3122   -2.3033    0.0000 C   0  0  0  0  0  0  0  0  0  0  0  0
  1  2  1  0  0  0  0 
  2  3  2  0  0  0  0 
  2  4  1  0  0  0  0 
  4  5  1  0  0  0  0 
  5  6  1  0  0  0  0 
  6  7  1  0  0  0  0 
  7  8  1  0  0  0  0 
  8  9  1  0  0  0  0 
M  END
> <Name>
2-Octanone

> <Source>
DSSTox2DMolFile

> <Tox>
3.446

> <CAS>
111-13-7

$$$$

  CDK

  9  8  0  0  0  0  0  0  0  0999 V2000
    1.9962   -2.3033    0.0000 C   0  0  0  0  0  0  0  0  0  0  0  0
    1.3308   -1.1553    0.0000 C   0  0  0  0  0  0  0  0  0  0  0  0
    0.0000   -1.1553    0.0000 O   0  0  0  0  0  0  0  0  0  0  0  0
    1.9962   -0.0000    0.0000 O   0  0  0  0  0  0  0  0  0  0  0  0
    3.3271   -0.0000    0.0000 C   0  0  0  0  0  0  0  0  0  0  0  0
    3.9852   -1.1553    0.0000 C   0  0  0  0  0  0  0  0  0  0  0  0
    5.3160   -1.1553    0.0000 O   0  0  0  0  0  0  0  0  0  0  0  0
    5.9814   -2.3033    0.0000 C   0  0  0  0  0  0  0  0  0  0  0  0
    7.3122   -2.3033    0.0000 C   0  0  0  0  0  0  0  0  0  0  0  0
  1  2  1  0  0  0  0 
  2  3  2  0  0  0  0 
  2  4  1  0  0  0  0 
  4  5  1  0  0  0  0 
  5  6  1  0  0  0  0 
  6  7  1  0  0  0  0 
  7  8  1  0  0  0  0 
  8  9  1  0  0  0  0 
M  END
> <Name>
Ethanol, 2-ethoxy-, acetate

> <Source>
DSSTox2DMolFile

> <Tox>
3.496

> <CAS>
111-15-9

$$$$

  CDK

  7  6  0  0  0  0  0  0  0  0999 V2000
    0.0000   -0.6638    0.0000 C   0  0  0  0  0  0  0  0  0  0  0  0
    1.1548   -0.0000    0.0000 C   0  0  0  0  0  0  0  0  0  0  0  0
    2.3027   -0.6638    0.0000 C   0  0  0  0  0  0  0  0  0  0  0  0
    3.4575   -0.0000    0.0000 C   0  0  0  0  0  0  0  0  0  0  0  0
    4.6122   -0.6638    0.0000 C   0  0  0  0  0  0  0  0  0  0  0  0
    5.7601   -0.0000    0.0000 C   0  0  0  0  0  0  0  0  0  0  0  0
    6.9149   -0.6638    0.0000 N   0  0  0  0  0  0  0  0  0  0  0  0
  1  2  1  0  0  0  0 
  2  3  1  0  0  0  0 
  3  4  1  0  0  0  0 
  4  5  1  0  0  0  0 
  5  6  1  0  0  0  0 
  6  7  1  0  0  0  0 
M  END
> <Name>
1-Hexanamine

> <Source>
DSSTox2DMolFile

> <Tox>
3.252

> <CAS>
111-26-2

$$$$

  CDK

  7  6  0  0  0  0  0  0  0  0999 V2000
    0.0000   -0.6638    0.0000 C   0  0  0  0  0  0  0  0  0  0  0  0
    1.1548   -0.0000    0.0000 C   0  0  0  0  0  0  0  0  0  0  0  0
    2.3027   -0.6638    0.0000 C   0  0  0  0  0  0  0  0  0  0  0  0
    3.4575   -0.0000    0.0000 C   0  0  0  0  0  0  0  0  0  0  0  0
    4.6122   -0.6638    0.0000 C   0  0  0  0  0  0  0  0  0  0  0  0
    5.7601   -0.0000    0.0000 C   0  0  0  0  0  0  0  0  0  0  0  0
    6.9149   -0.6638    0.0000 O   0  0  0  0  0  0  0  0  0  0  0  0
  1  2  1  0  0  0  0 
  2  3  1  0  0  0  0 
  3  4  1  0  0  0  0 
  4  5  1  0  0  0  0 
  5  6  1  0  0  0  0 
  6  7  1  0  0  0  0 
M  END
> <Name>
Hexyl alcohol

> <Source>
DSSTox2DMolFile

> <Tox>
2.941

> <CAS>
111-27-3

$$$$

  CDK

  7  6  0  0  0  0  0  0  0  0999 V2000
    0.0000   -0.6638    0.0000 O   0  0  0  0  0  0  0  0  0  0  0  0
    1.1548   -0.0000    0.0000 C   0  0  0  0  0  0  0  0  0  0  0  0
    2.3027   -0.6638    0.0000 C   0  0  0  0  0  0  0  0  0  0  0  0
    3.4575   -0.0000    0.0000 C   0  0  0  0  0  0  0  0  0  0  0  0
    4.6122   -0.6638    0.0000 C   0  0  0  0  0  0  0  0  0  0  0  0
    5.7601   -0.0000    0.0000 C   0  0  0  0  0  0  0  0  0  0  0  0
    6.9149   -0.6638    0.0000 O   0  0  0  0  0  0  0  0  0  0  0  0
  1  2  2  0  0  0  0 
  2  3  1  0  0  0  0 
  3  4  1  0  0  0  0 
  4  5  1  0  0  0  0 
  5  6  1  0  0  0  0 
  6  7  2  0  0  0  0 
M  END
> <Name>
Glutaraldehyde

> <Source>
DSSTox2DMolFile

> <Tox>
4.102

> <CAS>
111-30-8

$$$$

  CDK

  7  6  0  0  0  0  0  0  0  0999 V2000
    0.0000   -0.6638    0.0000 O   0  0  0  0  0  0  0  0  0  0  0  0
    1.1548   -0.0000    0.0000 C   0  0  0  0  0  0  0  0  0  0  0  0
    2.3027   -0.6638    0.0000 C   0  0  0  0  0  0  0  0  0  0  0  0
    3.4575   -0.0000    0.0000 N   0  0  0  0  0  0  0  0  0  0  0  0
    4.6122   -0.6638    0.0000 C   0  0  0  0  0  0  0  0  0  0  0  0
    5.7601   -0.0000    0.0000 C   0  0  0  0  0  0  0  0  0  0  0  0
    6.9149   -0.6638    0.0000 O   0  0  0  0  0  0  0  0  0  0  0  0
  1  2  1  0  0  0  0 
  2  3  1  0  0  0  0 
  3  4  1  0  0  0  0 
  4  5  1  0  0  0  0 
  5  6  1  0  0  0  0 
  6  7  1  0  0  0  0 
M  END
> <Name>
Ethanol, 2,2'-iminobis-

> <Source>
DSSTox2DMolFile

> <Tox>
1.851

> <CAS>
111-42-2

$$$$

  CDK

  8  7  0  0  0  0  0  0  0  0999 V2000
    0.0000   -1.9901    0.0000 N   0  0  0  0  0  0  0  0  0  0  0  0
    1.1521   -1.3294    0.0000 C   0  0  0  0  0  0  0  0  0  0  0  0
    2.3043   -0.6607    0.0000 C   0  0  0  0  0  0  0  0  0  0  0  0
    3.4564   -1.3294    0.0000 C   0  0  0  0  0  0  0  0  0  0  0  0
    4.6005   -0.6607    0.0000 C   0  0  0  0  0  0  0  0  0  0  0  0
    5.7526   -1.3294    0.0000 C   0  0  0  0  0  0  0  0  0  0  0  0
    6.9048   -0.6607    0.0000 C   0  0  0  0  0  0  0  0  0  0  0  0
    8.0569   -0.0000    0.0000 N   0  0  0  0  0  0  0  0  0  0  0  0
  1  2  3  0  0  0  0 
  2  3  1  0  0  0  0 
  3  4  1  0  0  0  0 
  4  5  1  0  0  0  0 
  5  6  1  0  0  0  0 
  6  7  1  0  0  0  0 
  7  8  3  0  0  0  0 
M  END
> <Name>
Hexanedinitrile

> <Source>
DSSTox2DMolFile

> <Tox>
1.937

> <CAS>
111-69-3

$$$$

  CDK

  9  8  0  0  0  0  0  0  0  0999 V2000
    0.0000   -0.6638    0.0000 C   0  0  0  0  0  0  0  0  0  0  0  0
    1.1525   -0.0000    0.0000 C   0  0  0  0  0  0  0  0  0  0  0  0
    2.3050   -0.6638    0.0000 O   0  0  0  0  0  0  0  0  0  0  0  0
    3.4575   -0.0000    0.0000 C   0  0  0  0  0  0  0  0  0  0  0  0
    4.6099   -0.6638    0.0000 C   0  0  0  0  0  0  0  0  0  0  0  0
    5.7624   -0.0000    0.0000 O   0  0  0  0  0  0  0  0  0  0  0  0
    6.9149   -0.6638    0.0000 C   0  0  0  0  0  0  0  0  0  0  0  0
    8.0674   -0.0000    0.0000 C   0  0  0  0  0  0  0  0  0  0  0  0
    9.2199   -0.6638    0.0000 O   0  0  0  0  0  0  0  0  0  0  0  0
  1  2  1  0  0  0  0 
  2  3  1  0  0  0  0 
  3  4  1  0  0  0  0 
  4  5  1  0  0  0  0 
  5  6  1  0  0  0  0 
  6  7  1  0  0  0  0 
  7  8  1  0  0  0  0 
  8  9  1  0  0  0  0 
M  END
> <Name>
Ethanol, 2-(2-ethoxyethoxy)-

> <Source>
DSSTox2DMolFile

> <Tox>
0.985

> <CAS>
111-90-0

$$$$

  CDK

 11 10  0  0  0  0  0  0  0  0999 V2000
    0.0000   -2.6632    0.0000 C   0  0  0  0  0  0  0  0  0  0  0  0
    1.1519   -1.9997    0.0000 C   0  0  0  0  0  0  0  0  0  0  0  0
    2.3038   -2.6632    0.0000 C   0  0  0  0  0  0  0  0  0  0  0  0
    3.4557   -1.9997    0.0000 C   0  0  0  0  0  0  0  0  0  0  0  0
    4.6076   -2.6632    0.0000 C   0  0  0  0  0  0  0  0  0  0  0  0
    5.7595   -1.9997    0.0000 C   0  0  0  0  0  0  0  0  0  0  0  0
    6.9113   -2.6632    0.0000 C   0  0  0  0  0  0  0  0  0  0  0  0
    8.0632   -1.9997    0.0000 C   0  0  0  0  0  0  0  0  0  0  0  0
    8.0632   -0.6635    0.0000 C   0  0  0  0  0  0  0  0  0  0  0  0
    6.9113   -0.0000    0.0000 O   0  0  0  0  0  0  0  0  0  0  0  0
    9.2151   -0.0000    0.0000 O   0  0  0  0  0  0  0  0  0  0  0  0
  1  2  1  0  0  0  0 
  2  3  1  0  0  0  0 
  3  4  1  0  0  0  0 
  4  5  1  0  0  0  0 
  5  6  1  0  0  0  0 
  6  7  1  0  0  0  0 
  7  8  1  0  0  0  0 
  8  9  1  0  0  0  0 
  9 10  1  0  0  0  0 
  9 11  2  0  0  0  0 
M  END
> <Name>
Nonanoic acid

> <Source>
DSSTox2DMolFile

> <Tox>
3.182

> <CAS>
112-05-0

$$$$

  CDK

 10  9  0  0  0  0  0  0  0  0999 V2000
    0.0000   -0.6638    0.0000 C   0  0  0  0  0  0  0  0  0  0  0  0
    1.1513   -0.0000    0.0000 C   0  0  0  0  0  0  0  0  0  0  0  0
    2.3027   -0.6638    0.0000 C   0  0  0  0  0  0  0  0  0  0  0  0
    3.4540   -0.0000    0.0000 C   0  0  0  0  0  0  0  0  0  0  0  0
    4.6053   -0.6638    0.0000 C   0  0  0  0  0  0  0  0  0  0  0  0
    5.7670   -0.0000    0.0000 C   0  0  0  0  0  0  0  0  0  0  0  0
    6.9184   -0.6638    0.0000 C   0  0  0  0  0  0  0  0  0  0  0  0
    8.0697   -0.0000    0.0000 C   0  0  0  0  0  0  0  0  0  0  0  0
    9.2210   -0.6638    0.0000 C   0  0  0  0  0  0  0  0  0  0  0  0
   10.3724   -0.0000    0.0000 N   0  0  0  0  0  0  0  0  0  0  0  0
  1  2  1  0  0  0  0 
  2  3  1  0  0  0  0 
  3  4  1  0  0  0  0 
  4  5  1  0  0  0  0 
  5  6  1  0  0  0  0 
  6  7  1  0  0  0  0 
  7  8  1  0  0  0  0 
  8  9  1  0  0  0  0 
  9 10  1  0  0  0  0 
M  END
> <Name>
1-Nonanamine

> <Source>
DSSTox2DMolFile

> <Tox>
4.822

> <CAS>
112-20-9

$$$$

  CDK

 11 10  0  0  0  0  0  0  0  0999 V2000
    0.0000   -0.6673    0.0000 C   0  0  0  0  0  0  0  0  0  0  0  0
    1.1505   -0.0000    0.0000 C   0  0  0  0  0  0  0  0  0  0  0  0
    2.3010   -0.6673    0.0000 C   0  0  0  0  0  0  0  0  0  0  0  0
    3.4515   -0.0000    0.0000 C   0  0  0  0  0  0  0  0  0  0  0  0
    4.6020   -0.6673    0.0000 C   0  0  0  0  0  0  0  0  0  0  0  0
    5.7525   -0.0000    0.0000 C   0  0  0  0  0  0  0  0  0  0  0  0
    6.9029   -0.6673    0.0000 C   0  0  0  0  0  0  0  0  0  0  0  0
    8.0534   -0.0000    0.0000 C   0  0  0  0  0  0  0  0  0  0  0  0
    9.2039   -0.6673    0.0000 C   0  0  0  0  0  0  0  0  0  0  0  0
   10.3544   -0.0000    0.0000 C   0  0  0  0  0  0  0  0  0  0  0  0
   11.5049   -0.6673    0.0000 O   0  0  0  0  0  0  0  0  0  0  0  0
  1  2  1  0  0  0  0 
  2  3  1  0  0  0  0 
  3  4  1  0  0  0  0 
  4  5  1  0  0  0  0 
  5  6  1  0  0  0  0 
  6  7  1  0  0  0  0 
  7  8  1  0  0  0  0 
  8  9  1  0  0  0  0 
  9 10  1  0  0  0  0 
 10 11  1  0  0  0  0 
M  END
> <Name>
Decyl alcohol

> <Source>
DSSTox2DMolFile

> <Tox>
4.819

> <CAS>
112-30-1

$$$$

  CDK

 15 15  0  0  0  0  0  0  0  0999 V2000
    5.3224   -1.1543    0.0000 C   0  0  0  0  0  0  0  0  0  0  0  0
    3.9884   -1.1543    0.0000 C   0  0  0  0  0  0  0  0  0  0  0  0
    3.3248   -0.0000    0.0000 C   0  0  0  0  0  0  0  0  0  0  0  0
    3.3248   -2.3018    0.0000 O   0  0  0  0  0  0  0  0  0  0  0  0
    3.9884   -3.4561    0.0000 C   0  0  0  0  0  0  0  0  0  0  0  0
    5.3224   -3.4561    0.0000 C   0  0  0  0  0  0  0  0  0  0  0  0
    3.3248   -4.6105    0.0000 C   0  0  0  0  0  0  0  0  0  0  0  0
    5.9860   -4.6105    0.0000 C   0  0  0  0  0  0  0  0  0  0  0  0
    3.9884   -5.7579    0.0000 C   0  0  0  0  0  0  0  0  0  0  0  0
    1.9976   -4.6105    0.0000 O   0  0  0  0  0  0  0  0  0  0  0  0
    5.3224   -5.7579    0.0000 C   0  0  0  0  0  0  0  0  0  0  0  0
    1.3272   -5.7579    0.0000 C   0  0  0  0  0  0  0  0  0  0  0  0
    0.0000   -5.7579    0.0000 O   0  0  0  0  0  0  0  0  0  0  0  0
    1.9976   -6.9123    0.0000 N   0  0  0  0  0  0  0  0  0  0  0  0
    3.3248   -6.9123    0.0000 C   0  0  0  0  0  0  0  0  0  0  0  0
  1  2  1  0  0  0  0 
  2  3  1  0  0  0  0 
  2  4  1  0  0  0  0 
  4  5  1  0  0  0  0 
  5  6  2  0  0  0  0 
  5  7  1  0  0  0  0 
  6  8  1  0  0  0  0 
  9  7  2  0  0  0  0 
  7 10  1  0  0  0  0 
  8 11  2  0  0  0  0 
 11  9  1  0  0  0  0 
 10 12  1  0  0  0  0 
 12 13  2  0  0  0  0 
 12 14  1  0  0  0  0 
 14 15  1  0  0  0  0 
M  END
> <Name>
Carbamic acid, methyl-, o-isopropoxyphenyl ester

> <Source>
DSSTox2DMolFile

> <Tox>
4.376

> <CAS>
114-26-1

$$$$

  CDK

 23 25  0  0  0  0  0  0  0  0999 V2000
    1.9924   -6.9547    0.0000 C   0  0  0  0  0  0  0  0  0  0  0  0
    0.6610   -6.9547    0.0000 C   0  0  0  0  0  0  0  0  0  0  0  0
    2.6627   -5.8002    0.0000 C   0  0  0  0  0  0  0  0  0  0  0  0
    0.0000   -5.8002    0.0000 C   0  0  0  0  0  0  0  0  0  0  0  0
    1.9924   -4.6551    0.0000 C   0  0  0  0  0  0  0  0  0  0  0  0
    3.9940   -5.8002    0.0000 O   0  0  0  0  0  0  0  0  0  0  0  0
    0.6610   -4.6551    0.0000 C   0  0  0  0  0  0  0  0  0  0  0  0
    4.6551   -4.6551    0.0000 P   0  0  0  0  0  0  0  0  0  0  0  0
    5.8095   -5.3161    0.0000 O   0  0  0  0  0  0  0  0  0  0  0  0
    3.5006   -3.9847    0.0000 O   0  0  0  0  0  0  0  0  0  0  0  0
    5.3161   -3.5006    0.0000 O   0  0  0  0  0  0  0  0  0  0  0  0
    3.5006   -2.6534    0.0000 C   0  0  0  0  0  0  0  0  0  0  0  0
    6.6474   -3.5006    0.0000 C   0  0  0  0  0  0  0  0  0  0  0  0
    2.3555   -1.9924    0.0000 C   0  0  0  0  0  0  0  0  0  0  0  0
    4.6551   -1.9924    0.0000 C   0  0  0  0  0  0  0  0  0  0  0  0
    7.3178   -2.3462    0.0000 C   0  0  0  0  0  0  0  0  0  0  0  0
    7.3178   -4.6551    0.0000 C   0  0  0  0  0  0  0  0  0  0  0  0
    2.3555   -0.6610    0.0000 C   0  0  0  0  0  0  0  0  0  0  0  0
    4.6551   -0.6610    0.0000 C   0  0  0  0  0  0  0  0  0  0  0  0
    8.6491   -2.3462    0.0000 C   0  0  0  0  0  0  0  0  0  0  0  0
    8.6491   -4.6551    0.0000 C   0  0  0  0  0  0  0  0  0  0  0  0
    3.5006   -0.0000    0.0000 C   0  0  0  0  0  0  0  0  0  0  0  0
    9.3101   -3.5006    0.0000 C   0  0  0  0  0  0  0  0  0  0  0  0
  1  2  2  0  0  0  0 
  1  3  1  0  0  0  0 
  2  4  1  0  0  0  0 
  5  3  2  0  0  0  0 
  3  6  1  0  0  0  0 
  4  7  2  0  0  0  0 
  7  5  1  0  0  0  0 
  6  8  1  0  0  0  0 
  8  9  2  0  0  0  0 
  8 10  1  0  0  0  0 
  8 11  1  0  0  0  0 
 10 12  1  0  0  0  0 
 11 13  1  0  0  0  0 
 12 14  2  0  0  0  0 
 12 15  1  0  0  0  0 
 13 16  2  0  0  0  0 
 13 17  1  0  0  0  0 
 14 18  1  0  0  0  0 
 19 15  2  0  0  0  0 
 16 20  1  0  0  0  0 
 21 17  2  0  0  0  0 
 18 22  2  0  0  0  0 
 22 19  1  0  0  0  0 
 20 23  2  0  0  0  0 
 23 21  1  0  0  0  0 
M  END
> <Name>
Phosphoric acid, triphenyl ester

> <Source>
DSSTox2DMolFile

> <Tox>
5.544

> <CAS>
115-86-6

$$$$

  CDK

 16 16  0  0  0  0  0  0  0  0999 V2000
    4.6045   -2.0089    0.0000 C   0  0  0  0  0  0  0  0  0  0  0  0
    5.7643   -1.3254    0.0000 N   0  0  0  0  0  0  0  0  0  0  0  0
    3.4517   -1.3393    0.0000 C   0  0  0  0  0  0  0  0  0  0  0  0
    4.6045   -3.3343    0.0000 C   0  0  0  0  0  0  0  0  0  0  0  0
    6.9034   -1.9951    0.0000 O   0  0  0  0  0  0  0  0  0  0  0  0
    5.7643   -0.0000    0.0000 O   0  0  0  0  0  0  0  0  0  0  0  0
    2.2988   -2.0089    0.0000 C   0  0  0  0  0  0  0  0  0  0  0  0
    3.4517   -0.0138    0.0000 C   0  0  0  0  0  0  0  0  0  0  0  0
    3.4517   -3.9970    0.0000 C   0  0  0  0  0  0  0  0  0  0  0  0
    1.1391   -1.3254    0.0000 N   0  0  0  0  0  0  0  0  0  0  0  0
    2.2988   -3.3343    0.0000 C   0  0  0  0  0  0  0  0  0  0  0  0
    3.4517   -5.3225    0.0000 N   0  0  0  0  0  0  0  0  0  0  0  0
    1.1391   -0.0000    0.0000 O   0  0  0  0  0  0  0  0  0  0  0  0
    0.0000   -1.9951    0.0000 O   0  0  0  0  0  0  0  0  0  0  0  0
    2.2988   -5.9921    0.0000 O   0  0  0  0  0  0  0  0  0  0  0  0
    4.6045   -5.9921    0.0000 O   0  0  0  0  0  0  0  0  0  0  0  0
  1  2  1  0  0  0  0 
  1  3  1  0  0  0  0 
  1  4  2  0  0  0  0 
  2  5  1  0  0  0  0 
  2  6  2  0  0  0  0 
  7  3  2  0  0  0  0 
  3  8  1  0  0  0  0 
  9  4  1  0  0  0  0 
  7 10  1  0  0  0  0 
  7 11  1  0  0  0  0 
 12  9  1  0  0  0  0 
  9 11  2  0  0  0  0 
 10 13  1  0  0  0  0 
 10 14  2  0  0  0  0 
 12 15  1  0  0  0  0 
 12 16  2  0  0  0  0 
M  CHG  1   2   1
M  CHG  1   5  -1
M  CHG  1  10   1
M  CHG  1  12   1
M  CHG  1  13  -1
M  CHG  1  15  -1
M  END
> <Name>
Benzene, 2-methyl-1,3,5-trinitro-

> <Source>
DSSTox2DMolFile

> <Tox>
4.976

> <CAS>
118-96-7

$$$$

  CDK

 11 11  0  0  0  0  0  0  0  0999 V2000
    0.0000   -3.4582    0.0000 O   0  0  0  0  0  0  0  0  0  0  0  0
    0.6656   -2.3039    0.0000 N   0  0  0  0  0  0  0  0  0  0  0  0
    0.0000   -1.1543    0.0000 O   0  0  0  0  0  0  0  0  0  0  0  0
    1.9968   -2.3039    0.0000 C   0  0  0  0  0  0  0  0  0  0  0  0
    2.6577   -1.1543    0.0000 C   0  0  0  0  0  0  0  0  0  0  0  0
    2.6577   -3.4582    0.0000 C   0  0  0  0  0  0  0  0  0  0  0  0
    3.9889   -1.1543    0.0000 C   0  0  0  0  0  0  0  0  0  0  0  0
    1.9968   -0.0000    0.0000 C   0  0  0  0  0  0  0  0  0  0  0  0
    3.9889   -3.4582    0.0000 C   0  0  0  0  0  0  0  0  0  0  0  0
    4.6544   -2.3039    0.0000 C   0  0  0  0  0  0  0  0  0  0  0  0
    4.6544   -4.6079    0.0000 N   0  0  0  0  0  0  0  0  0  0  0  0
  1  2  1  0  0  0  0 
  2  3  2  0  0  0  0 
  2  4  1  0  0  0  0 
  4  5  2  0  0  0  0 
  4  6  1  0  0  0  0 
  5  7  1  0  0  0  0 
  5  8  1  0  0  0  0 
  9  6  2  0  0  0  0 
  7 10  2  0  0  0  0 
 10  9  1  0  0  0  0 
  9 11  1  0  0  0  0 
M  CHG  1   1  -1
M  CHG  1   2   1
M  END
> <Name>
Benzenamine, 4-methyl-3-nitro-

> <Source>
DSSTox2DMolFile

> <Tox>
3.768

> <CAS>
119-32-4

$$$$

  CDK

  9  9  0  0  0  0  0  0  0  0999 V2000
    0.0000   -2.6589    0.0000 Cl  0  0  0  0  0  0  0  0  0  0  0  0
    1.1520   -1.9953    0.0000 C   0  0  0  0  0  0  0  0  0  0  0  0
    1.1520   -0.6636    0.0000 C   0  0  0  0  0  0  0  0  0  0  0  0
    2.3041   -2.6589    0.0000 C   0  0  0  0  0  0  0  0  0  0  0  0
    2.3041   -0.0000    0.0000 C   0  0  0  0  0  0  0  0  0  0  0  0
    0.0000   -0.0000    0.0000 O   0  0  0  0  0  0  0  0  0  0  0  0
    3.4561   -1.9953    0.0000 C   0  0  0  0  0  0  0  0  0  0  0  0
    3.4561   -0.6636    0.0000 C   0  0  0  0  0  0  0  0  0  0  0  0
    4.6082   -2.6589    0.0000 Cl  0  0  0  0  0  0  0  0  0  0  0  0
  1  2  1  0  0  0  0 
  2  3  2  0  0  0  0 
  2  4  1  0  0  0  0 
  3  5  1  0  0  0  0 
  3  6  1  0  0  0  0 
  7  4  2  0  0  0  0 
  5  8  2  0  0  0  0 
  8  7  1  0  0  0  0 
  7  9  1  0  0  0  0 
M  END
> <Name>
Phenol, 2,4-dichloro-

> <Source>
DSSTox2DMolFile

> <Tox>
4.298

> <CAS>
120-83-2

$$$$

  CDK

 11 11  0  0  0  0  0  0  0  0999 V2000
    4.6094   -1.9972    0.0000 C   0  0  0  0  0  0  0  0  0  0  0  0
    5.7565   -2.6606    0.0000 C   0  0  0  0  0  0  0  0  0  0  0  0
    3.4553   -2.6606    0.0000 C   0  0  0  0  0  0  0  0  0  0  0  0
    4.6094   -0.6634    0.0000 C   0  0  0  0  0  0  0  0  0  0  0  0
    6.9106   -1.9972    0.0000 O   0  0  0  0  0  0  0  0  0  0  0  0
    2.3012   -1.9972    0.0000 C   0  0  0  0  0  0  0  0  0  0  0  0
    3.4553   -0.0000    0.0000 C   0  0  0  0  0  0  0  0  0  0  0  0
    1.1541   -2.6606    0.0000 O   0  0  0  0  0  0  0  0  0  0  0  0
    2.3012   -0.6634    0.0000 C   0  0  0  0  0  0  0  0  0  0  0  0
    0.0000   -1.9972    0.0000 C   0  0  0  0  0  0  0  0  0  0  0  0
    1.1541   -0.0000    0.0000 O   0  0  0  0  0  0  0  0  0  0  0  0
  1  2  1  0  0  0  0 
  1  3  2  0  0  0  0 
  1  4  1  0  0  0  0 
  2  5  2  0  0  0  0 
  3  6  1  0  0  0  0 
  7  4  2  0  0  0  0 
  6  8  1  0  0  0  0 
  6  9  2  0  0  0  0 
  9  7  1  0  0  0  0 
  8 10  1  0  0  0  0 
  9 11  1  0  0  0  0 
M  END
> <Name>
Benzaldehyde, 4-hydroxy-3-methoxy-

> <Source>
DSSTox2DMolFile

> <Tox>
3.118

> <CAS>
121-33-5

$$$$

  CDK

  9  9  0  0  0  0  0  0  0  0999 V2000
    0.0000   -2.3037    0.0000 C   0  0  0  0  0  0  0  0  0  0  0  0
    0.6655   -1.1542    0.0000 N   0  0  0  0  0  0  0  0  0  0  0  0
    1.9965   -1.1542    0.0000 C   0  0  0  0  0  0  0  0  0  0  0  0
    0.0000   -0.0000    0.0000 C   0  0  0  0  0  0  0  0  0  0  0  0
    2.6574   -0.0000    0.0000 C   0  0  0  0  0  0  0  0  0  0  0  0
    2.6574   -2.3037    0.0000 C   0  0  0  0  0  0  0  0  0  0  0  0
    3.9884   -0.0000    0.0000 C   0  0  0  0  0  0  0  0  0  0  0  0
    3.9884   -2.3037    0.0000 C   0  0  0  0  0  0  0  0  0  0  0  0
    4.6539   -1.1542    0.0000 C   0  0  0  0  0  0  0  0  0  0  0  0
  1  2  1  0  0  0  0 
  2  3  1  0  0  0  0 
  2  4  1  0  0  0  0 
  3  5  2  0  0  0  0 
  3  6  1  0  0  0  0 
  5  7  1  0  0  0  0 
  8  6  2  0  0  0  0 
  7  9  2  0  0  0  0 
  9  8  1  0  0  0  0 
M  END
> <Name>
Benzenamine, N,N-dimethyl-

> <Source>
DSSTox2DMolFile

> <Tox>
3.267

> <CAS>
121-69-7

$$$$

  CDK

 13 13  0  0  0  0  0  0  0  0999 V2000
    1.9952   -0.0000    0.0000 Cl  0  0  0  0  0  0  0  0  0  0  0  0
    2.6577   -1.1572    0.0000 C   0  0  0  0  0  0  0  0  0  0  0  0
    3.9905   -1.1572    0.0000 N   0  0  0  0  0  0  0  0  0  0  0  0
    1.9952   -2.3065    0.0000 N   0  0  0  0  0  0  0  0  0  0  0  0
    4.6529   -2.3065    0.0000 C   0  0  0  0  0  0  0  0  0  0  0  0
    2.6577   -3.4558    0.0000 C   0  0  0  0  0  0  0  0  0  0  0  0
    3.9905   -3.4558    0.0000 N   0  0  0  0  0  0  0  0  0  0  0  0
    5.9857   -2.3065    0.0000 N   0  0  0  0  0  0  0  0  0  0  0  0
    1.9952   -4.6130    0.0000 N   0  0  0  0  0  0  0  0  0  0  0  0
    6.6482   -3.4558    0.0000 C   0  0  0  0  0  0  0  0  0  0  0  0
    0.6624   -4.6130    0.0000 C   0  0  0  0  0  0  0  0  0  0  0  0
    7.9810   -3.4558    0.0000 C   0  0  0  0  0  0  0  0  0  0  0  0
    0.0000   -5.7623    0.0000 C   0  0  0  0  0  0  0  0  0  0  0  0
  1  2  1  0  0  0  0 
  2  3  2  0  0  0  0 
  2  4  1  0  0  0  0 
  3  5  1  0  0  0  0 
  6  4  2  0  0  0  0 
  5  7  2  0  0  0  0 
  5  8  1  0  0  0  0 
  7  6  1  0  0  0  0 
  6  9  1  0  0  0  0 
  8 10  1  0  0  0  0 
  9 11  1  0  0  0  0 
 10 12  1  0  0  0  0 
 11 13  1  0  0  0  0 
M  END
> <Name>
1,3,5-Triazine-2,4-diamine, 6-chloro-N,N'-diethyl-

> <Source>
DSSTox2DMolFile

> <Tox>
4.498

> <CAS>
122-34-9

$$$$

  CDK

  9  9  0  0  0  0  0  0  0  0999 V2000
    5.9806   -1.1542    0.0000 O   0  0  0  0  0  0  0  0  0  0  0  0
    4.6529   -1.1542    0.0000 C   0  0  0  0  0  0  0  0  0  0  0  0
    3.9890   -2.3025    0.0000 C   0  0  0  0  0  0  0  0  0  0  0  0
    3.9890   -0.0000    0.0000 C   0  0  0  0  0  0  0  0  0  0  0  0
    2.6554   -2.3025    0.0000 C   0  0  0  0  0  0  0  0  0  0  0  0
    2.6554   -0.0000    0.0000 C   0  0  0  0  0  0  0  0  0  0  0  0
    1.9915   -1.1542    0.0000 C   0  0  0  0  0  0  0  0  0  0  0  0
    0.6638   -1.1542    0.0000 C   0  0  0  0  0  0  0  0  0  0  0  0
    0.0000   -0.0000    0.0000 C   0  0  0  0  0  0  0  0  0  0  0  0
  1  2  1  0  0  0  0 
  2  3  2  0  0  0  0 
  2  4  1  0  0  0  0 
  3  5  1  0  0  0  0 
  6  4  2  0  0  0  0 
  5  7  2  0  0  0  0 
  7  6  1  0  0  0  0 
  7  8  1  0  0  0  0 
  8  9  1  0  0  0  0 
M  END
> <Name>
Phenol, 4-ethyl-

> <Source>
DSSTox2DMolFile

> <Tox>
4.070

> <CAS>
123-07-9

$$$$

  CDK

  7  6  0  0  0  0  0  0  0  0999 V2000
    2.6592   -0.0000    0.0000 C   0  0  0  0  0  0  0  0  0  0  0  0
    1.9979   -1.1550    0.0000 C   0  0  0  0  0  0  0  0  0  0  0  0
    0.6660   -1.1550    0.0000 C   0  0  0  0  0  0  0  0  0  0  0  0
    2.6592   -2.3053    0.0000 C   0  0  0  0  0  0  0  0  0  0  0  0
    0.0000   -2.3053    0.0000 O   0  0  0  0  0  0  0  0  0  0  0  0
    3.9912   -2.3053    0.0000 C   0  0  0  0  0  0  0  0  0  0  0  0
    4.6571   -1.1550    0.0000 C   0  0  0  0  0  0  0  0  0  0  0  0
  1  2  1  0  0  0  0 
  2  3  1  0  0  0  0 
  2  4  1  0  0  0  0 
  3  5  2  0  0  0  0 
  4  6  1  0  0  0  0 
  6  7  1  0  0  0  0 
M  END
> <Name>
Valeraldehyde, 2-methyl- (8CI)

> <Source>
DSSTox2DMolFile

> <Tox>
3.727

> <CAS>
123-15-9

$$$$

  CDK

 14 14  0  0  0  0  0  0  0  0999 V2000
    2.6608   -2.3037    0.0000 C   0  0  0  0  0  0  0  0  0  0  0  0
    1.9927   -3.4556    0.0000 C   0  0  0  0  0  0  0  0  0  0  0  0
    1.9927   -1.1519    0.0000 C   0  0  0  0  0  0  0  0  0  0  0  0
    3.9912   -2.3037    0.0000 C   0  0  0  0  0  0  0  0  0  0  0  0
    2.6608   -4.6074    0.0000 C   0  0  0  0  0  0  0  0  0  0  0  0
    0.6623   -3.4556    0.0000 C   0  0  0  0  0  0  0  0  0  0  0  0
    0.6623   -1.1519    0.0000 C   0  0  0  0  0  0  0  0  0  0  0  0
    4.6535   -3.4556    0.0000 O   0  0  0  0  0  0  0  0  0  0  0  0
    4.6535   -1.1519    0.0000 O   0  0  0  0  0  0  0  0  0  0  0  0
    1.9927   -5.7593    0.0000 O   0  0  0  0  0  0  0  0  0  0  0  0
    3.9912   -4.6074    0.0000 O   0  0  0  0  0  0  0  0  0  0  0  0
    0.0000   -2.3037    0.0000 C   0  0  0  0  0  0  0  0  0  0  0  0
    3.9912   -0.0000    0.0000 C   0  0  0  0  0  0  0  0  0  0  0  0
    4.6535   -5.7593    0.0000 C   0  0  0  0  0  0  0  0  0  0  0  0
  1  2  2  0  0  0  0 
  1  3  1  0  0  0  0 
  1  4  1  0  0  0  0 
  2  5  1  0  0  0  0 
  2  6  1  0  0  0  0 
  7  3  2  0  0  0  0 
  4  8  2  0  0  0  0 
  4  9  1  0  0  0  0 
  5 10  2  0  0  0  0 
  5 11  1  0  0  0  0 
  6 12  2  0  0  0  0 
 12  7  1  0  0  0  0 
  9 13  1  0  0  0  0 
 11 14  1  0  0  0  0 
M  END
> <Name>
1,2-Benzenedicarboxylic acid, dimethyl ester

> <Source>
DSSTox2DMolFile

> <Tox>
3.205

> <CAS>
131-11-3

$$$$

  CDK

 13 15  0  0  0  0  0  0  0  0999 V2000
    5.3180   -0.0000    0.0000 C   0  0  0  0  0  0  0  0  0  0  0  0
    6.3919   -0.7798    0.0000 C   0  0  0  0  0  0  0  0  0  0  0  0
    4.1036   -0.5433    0.0000 C   0  0  0  0  0  0  0  0  0  0  0  0
    6.2512   -2.1029    0.0000 C   0  0  0  0  0  0  0  0  0  0  0  0
    3.9630   -1.8664    0.0000 C   0  0  0  0  0  0  0  0  0  0  0  0
    2.8827   -0.0000    0.0000 O   0  0  0  0  0  0  0  0  0  0  0  0
    5.0368   -2.6462    0.0000 C   0  0  0  0  0  0  0  0  0  0  0  0
    2.6590   -2.1413    0.0000 C   0  0  0  0  0  0  0  0  0  0  0  0
    1.9943   -0.9907    0.0000 C   0  0  0  0  0  0  0  0  0  0  0  0
    1.9943   -3.2918    0.0000 C   0  0  0  0  0  0  0  0  0  0  0  0
    0.6648   -0.9907    0.0000 C   0  0  0  0  0  0  0  0  0  0  0  0
    0.6648   -3.2918    0.0000 C   0  0  0  0  0  0  0  0  0  0  0  0
    0.0000   -2.1413    0.0000 C   0  0  0  0  0  0  0  0  0  0  0  0
  1  2  2  0  0  0  0 
  1  3  1  0  0  0  0 
  2  4  1  0  0  0  0 
  5  3  2  0  0  0  0 
  6  3  1  0  0  0  0 
  4  7  2  0  0  0  0 
  7  5  1  0  0  0  0 
  5  8  1  0  0  0  0 
  9  6  1  0  0  0  0 
  8 10  2  0  0  0  0 
  8  9  1  0  0  0  0 
 11  9  2  0  0  0  0 
 10 12  1  0  0  0  0 
 13 11  1  0  0  0  0 
 12 13  2  0  0  0  0 
M  END
> <Name>
Dibenzofuran

> <Source>
DSSTox2DMolFile

> <Tox>
4.967

> <CAS>
132-64-9

$$$$

  CDK

 12 11  0  0  0  0  0  0  0  0999 V2000
    2.3008   -3.9867    0.0000 S   0  0  0  0  0  0  0  0  0  0  0  0
    2.3008   -2.6601    0.0000 C   0  0  0  0  0  0  0  0  0  0  0  0
    1.1539   -1.9899    0.0000 N   0  0  0  0  0  0  0  0  0  0  0  0
    3.4547   -1.9899    0.0000 S   0  0  0  0  0  0  0  0  0  0  0  0
    1.1539   -0.6633    0.0000 C   0  0  0  0  0  0  0  0  0  0  0  0
    0.0000   -2.6601    0.0000 C   0  0  0  0  0  0  0  0  0  0  0  0
    4.6085   -2.6601    0.0000 S   0  0  0  0  0  0  0  0  0  0  0  0
    5.7555   -1.9899    0.0000 C   0  0  0  0  0  0  0  0  0  0  0  0
    6.9094   -2.6601    0.0000 S   0  0  0  0  0  0  0  0  0  0  0  0
    5.7555   -0.6633    0.0000 N   0  0  0  0  0  0  0  0  0  0  0  0
    4.6085   -0.0000    0.0000 C   0  0  0  0  0  0  0  0  0  0  0  0
    6.9094   -0.0000    0.0000 C   0  0  0  0  0  0  0  0  0  0  0  0
  1  2  2  0  0  0  0 
  2  3  1  0  0  0  0 
  2  4  1  0  0  0  0 
  3  5  1  0  0  0  0 
  3  6  1  0  0  0  0 
  4  7  1  0  0  0  0 
  7  8  1  0  0  0  0 
  8  9  2  0  0  0  0 
  8 10  1  0  0  0  0 
 10 11  1  0  0  0  0 
 10 12  1  0  0  0  0 
M  END
> <Name>
Thioperoxydicarbonic diamide (((H2N)C(S))2S2), tetramethyl-

> <Source>
DSSTox2DMolFile

> <Tox>
7.045

> <CAS>
137-26-8

$$$$

  CDK

  4  3  0  0  0  0  0  0  0  0999 V2000
    0.0000   -0.0000    0.0000 O   0  0  0  0  0  0  0  0  0  0  0  0
    1.1513   -0.6638    0.0000 C   0  0  0  0  0  0  0  0  0  0  0  0
    2.3061   -0.0000    0.0000 C   0  0  0  0  0  0  0  0  0  0  0  0
    3.4575   -0.6638    0.0000 N   0  0  0  0  0  0  0  0  0  0  0  0
  1  2  1  0  0  0  0 
  2  3  1  0  0  0  0 
  3  4  1  0  0  0  0 
M  END
> <Name>
Ethanol, 2-amino-

> <Source>
DSSTox2DMolFile

> <Tox>
1.470

> <CAS>
141-43-5

$$$$

  CDK

  6  5  0  0  0  0  0  0  0  0999 V2000
    4.6084   -1.9954    0.0000 C   0  0  0  0  0  0  0  0  0  0  0  0
    3.4563   -1.3318    0.0000 C   0  0  0  0  0  0  0  0  0  0  0  0
    3.4563   -0.0000    0.0000 O   0  0  0  0  0  0  0  0  0  0  0  0
    2.3042   -1.9954    0.0000 O   0  0  0  0  0  0  0  0  0  0  0  0
    1.1521   -1.3318    0.0000 C   0  0  0  0  0  0  0  0  0  0  0  0
    0.0000   -1.9954    0.0000 C   0  0  0  0  0  0  0  0  0  0  0  0
  1  2  1  0  0  0  0 
  2  3  2  0  0  0  0 
  2  4  1  0  0  0  0 
  4  5  1  0  0  0  0 
  5  6  1  0  0  0  0 
M  END
> <Name>
Acetic acid ethyl ester

> <Source>
DSSTox2DMolFile

> <Tox>
2.583

> <CAS>
141-78-6

$$$$

  CDK

 10 10  0  0  0  0  0  0  0  0999 V2000
    6.9081   -1.9964    0.0000 C   0  0  0  0  0  0  0  0  0  0  0  0
    5.7544   -2.6596    0.0000 C   0  0  0  0  0  0  0  0  0  0  0  0
    4.6077   -1.9964    0.0000 C   0  0  0  0  0  0  0  0  0  0  0  0
    3.4540   -2.6596    0.0000 C   0  0  0  0  0  0  0  0  0  0  0  0
    4.6077   -0.6632    0.0000 C   0  0  0  0  0  0  0  0  0  0  0  0
    2.3004   -1.9964    0.0000 C   0  0  0  0  0  0  0  0  0  0  0  0
    3.4540   -0.0000    0.0000 C   0  0  0  0  0  0  0  0  0  0  0  0
    1.1537   -2.6596    0.0000 C   0  0  0  0  0  0  0  0  0  0  0  0
    2.3004   -0.6632    0.0000 C   0  0  0  0  0  0  0  0  0  0  0  0
    0.0000   -1.9964    0.0000 C   0  0  0  0  0  0  0  0  0  0  0  0
  1  2  1  0  0  0  0 
  2  3  1  0  0  0  0 
  3  4  2  0  0  0  0 
  3  5  1  0  0  0  0 
  4  6  1  0  0  0  0 
  7  5  2  0  0  0  0 
  6  8  1  0  0  0  0 
  6  9  2  0  0  0  0 
  9  7  1  0  0  0  0 
  8 10  1  0  0  0  0 
M  END
> <Name>
Benzene, 1,3-diethyl-

> <Source>
DSSTox2DMolFile

> <Tox>
4.510

> <CAS>
141-93-5

$$$$

  CDK

  5  4  0  0  0  0  0  0  0  0999 V2000
    0.0000   -0.6638    0.0000 Cl  0  0  0  0  0  0  0  0  0  0  0  0
    1.1525   -0.0000    0.0000 C   0  0  0  0  0  0  0  0  0  0  0  0
    2.3050   -0.6638    0.0000 C   0  0  0  0  0  0  0  0  0  0  0  0
    3.4575   -0.0000    0.0000 C   0  0  0  0  0  0  0  0  0  0  0  0
    4.6099   -0.6638    0.0000 Cl  0  0  0  0  0  0  0  0  0  0  0  0
  1  2  1  0  0  0  0 
  2  3  1  0  0  0  0 
  3  4  1  0  0  0  0 
  4  5  1  0  0  0  0 
M  END
> <Name>
Propane, 1,3-dichloro-

> <Source>
DSSTox2DMolFile

> <Tox>
2.936

> <CAS>
142-28-9

$$$$

  CDK

 10  9  0  0  0  0  0  0  0  0999 V2000
    5.7596   -0.0000    0.0000 C   0  0  0  0  0  0  0  0  0  0  0  0
    6.9132   -0.6695    0.0000 C   0  0  0  0  0  0  0  0  0  0  0  0
    8.0667   -0.0000    0.0000 O   0  0  0  0  0  0  0  0  0  0  0  0
    6.9132   -2.0006    0.0000 O   0  0  0  0  0  0  0  0  0  0  0  0
    5.7596   -2.6620    0.0000 C   0  0  0  0  0  0  0  0  0  0  0  0
    4.6061   -2.0006    0.0000 C   0  0  0  0  0  0  0  0  0  0  0  0
    3.4606   -2.6620    0.0000 C   0  0  0  0  0  0  0  0  0  0  0  0
    2.3071   -2.0006    0.0000 C   0  0  0  0  0  0  0  0  0  0  0  0
    1.1535   -2.6620    0.0000 C   0  0  0  0  0  0  0  0  0  0  0  0
    0.0000   -2.0006    0.0000 C   0  0  0  0  0  0  0  0  0  0  0  0
  1  2  1  0  0  0  0 
  2  3  2  0  0  0  0 
  2  4  1  0  0  0  0 
  4  5  1  0  0  0  0 
  5  6  1  0  0  0  0 
  6  7  1  0  0  0  0 
  7  8  1  0  0  0  0 
  8  9  1  0  0  0  0 
  9 10  1  0  0  0  0 
M  END
> <Name>
Acetic acid, hexyl ester

> <Source>
DSSTox2DMolFile

> <Tox>
4.557

> <CAS>
142-92-7

$$$$

  CDK

 10  9  0  0  0  0  0  0  0  0999 V2000
    0.0000   -0.6638    0.0000 C   0  0  0  0  0  0  0  0  0  0  0  0
    1.1513   -0.0000    0.0000 C   0  0  0  0  0  0  0  0  0  0  0  0
    2.3027   -0.6638    0.0000 C   0  0  0  0  0  0  0  0  0  0  0  0
    3.4540   -0.0000    0.0000 C   0  0  0  0  0  0  0  0  0  0  0  0
    4.6053   -0.6638    0.0000 C   0  0  0  0  0  0  0  0  0  0  0  0
    5.7670   -0.0000    0.0000 C   0  0  0  0  0  0  0  0  0  0  0  0
    6.9184   -0.6638    0.0000 C   0  0  0  0  0  0  0  0  0  0  0  0
    8.0697   -0.0000    0.0000 C   0  0  0  0  0  0  0  0  0  0  0  0
    9.2210   -0.6638    0.0000 C   0  0  0  0  0  0  0  0  0  0  0  0
   10.3724   -0.0000    0.0000 O   0  0  0  0  0  0  0  0  0  0  0  0
  1  2  1  0  0  0  0 
  2  3  1  0  0  0  0 
  3  4  1  0  0  0  0 
  4  5  1  0  0  0  0 
  5  6  1  0  0  0  0 
  6  7  1  0  0  0  0 
  7  8  1  0  0  0  0 
  8  9  1  0  0  0  0 
  9 10  1  0  0  0  0 
M  END
> <Name>
Nonyl alcohol

> <Source>
DSSTox2DMolFile

> <Tox>
4.410

> <CAS>
143-08-8

$$$$

  CDK

 11 11  0  0  0  0  0  0  0  0999 V2000
    4.6067   -1.9891    0.0000 C   0  0  0  0  0  0  0  0  0  0  0  0
    5.7531   -2.6590    0.0000 C   0  0  0  0  0  0  0  0  0  0  0  0
    3.4533   -2.6590    0.0000 C   0  0  0  0  0  0  0  0  0  0  0  0
    4.6067   -0.6630    0.0000 C   0  0  0  0  0  0  0  0  0  0  0  0
    6.9065   -1.9891    0.0000 O   0  0  0  0  0  0  0  0  0  0  0  0
    3.4533   -3.9851    0.0000 O   0  0  0  0  0  0  0  0  0  0  0  0
    2.2999   -1.9891    0.0000 C   0  0  0  0  0  0  0  0  0  0  0  0
    3.4533   -0.0000    0.0000 C   0  0  0  0  0  0  0  0  0  0  0  0
    1.1534   -2.6590    0.0000 O   0  0  0  0  0  0  0  0  0  0  0  0
    2.2999   -0.6630    0.0000 C   0  0  0  0  0  0  0  0  0  0  0  0
    0.0000   -1.9891    0.0000 C   0  0  0  0  0  0  0  0  0  0  0  0
  1  2  1  0  0  0  0 
  1  3  2  0  0  0  0 
  1  4  1  0  0  0  0 
  2  5  2  0  0  0  0 
  3  6  1  0  0  0  0 
  3  7  1  0  0  0  0 
  8  4  2  0  0  0  0 
  7  9  1  0  0  0  0 
  7 10  2  0  0  0  0 
 10  8  1  0  0  0  0 
  9 11  1  0  0  0  0 
M  END
> <Name>
m-Anisaldehyde, 2-hydroxy- (8CI)

> <Source>
DSSTox2DMolFile

> <Tox>
4.767

> <CAS>
148-53-8

$$$$

  CDK

 13 12  0  0  0  0  0  0  0  0999 V2000
    1.2384   -2.6484    0.0000 C   0  0  0  0  0  0  0  0  0  0  0  0
    2.4829   -3.5251    0.0000 O   0  0  0  0  0  0  0  0  0  0  0  0
    1.2690   -1.3916    0.0000 C   0  0  0  0  0  0  0  0  0  0  0  0
    0.0000   -3.3902    0.0000 Br  0  0  0  0  0  0  0  0  0  0  0  0
    2.5135   -4.8738    0.0000 P   0  0  0  0  0  0  0  0  0  0  0  0
    0.0123   -1.3610    0.0000 Br  0  0  0  0  0  0  0  0  0  0  0  0
    1.2384   -0.0000    0.0000 Cl  0  0  0  0  0  0  0  0  0  0  0  0
    2.5258   -1.4223    0.0000 Cl  0  0  0  0  0  0  0  0  0  0  0  0
    2.5135   -6.1306    0.0000 O   0  0  0  0  0  0  0  0  0  0  0  0
    3.8132   -4.9964    0.0000 O   0  0  0  0  0  0  0  0  0  0  0  0
    1.4836   -4.8309    0.0000 O   0  0  0  0  0  0  0  0  0  0  0  0
    4.3895   -3.6048    0.0000 C   0  0  0  0  0  0  0  0  0  0  0  0
    0.7111   -5.9773    0.0000 C   0  0  0  0  0  0  0  0  0  0  0  0
  1  2  1  0  0  0  0 
  1  3  1  0  0  0  0 
  1  4  1  0  0  0  0 
  5  2  1  0  0  0  0 
  3  6  1  0  0  0  0 
  3  7  1  0  0  0  0 
  3  8  1  0  0  0  0 
  5  9  2  0  0  0  0 
  5 10  1  0  0  0  0 
  5 11  1  0  0  0  0 
 10 12  1  0  0  0  0 
 11 13  1  0  0  0  0 
M  END
> <Name>
Phosphoric acid, 1,2-dibromo-2,2-dichloroethyl dimethyl ester

> <Source>
DSSTox2DMolFile

> <Tox>
5.062

> <CAS>
300-76-5

$$$$

  CDK

  9  9  0  0  0  0  0  0  0  0999 V2000
    0.0000   -0.0000    0.0000 C   0  0  0  0  0  0  0  0  0  0  0  0
    0.6638   -1.1542    0.0000 N   0  0  0  0  0  0  0  0  0  0  0  0
    1.9915   -1.1542    0.0000 C   0  0  0  0  0  0  0  0  0  0  0  0
    2.6554   -0.0000    0.0000 C   0  0  0  0  0  0  0  0  0  0  0  0
    2.6554   -2.3025    0.0000 C   0  0  0  0  0  0  0  0  0  0  0  0
    3.9890   -0.0000    0.0000 C   0  0  0  0  0  0  0  0  0  0  0  0
    3.9890   -2.3025    0.0000 C   0  0  0  0  0  0  0  0  0  0  0  0
    4.6529   -1.1542    0.0000 C   0  0  0  0  0  0  0  0  0  0  0  0
    5.9806   -1.1542    0.0000 F   0  0  0  0  0  0  0  0  0  0  0  0
  1  2  1  0  0  0  0 
  2  3  1  0  0  0  0 
  3  4  2  0  0  0  0 
  3  5  1  0  0  0  0 
  4  6  1  0  0  0  0 
  7  5  2  0  0  0  0 
  6  8  2  0  0  0  0 
  8  7  1  0  0  0  0 
  8  9  1  0  0  0  0 
M  END
> <Name>
4-Fluoro-N-methylaniline

> <Source>
DSSTox2DMolFile

> <Tox>
3.513

> <CAS>
459-59-6

$$$$

  CDK

 11 12  0  0  0  0  0  0  0  0999 V2000
    3.3866   -0.6468    0.0000 C   0  0  0  0  0  0  0  0  0  0  0  0
    3.3866   -1.9604    0.0000 C   0  0  0  0  0  0  0  0  0  0  0  0
    2.2457   -0.0000    0.0000 C   0  0  0  0  0  0  0  0  0  0  0  0
    2.2457   -2.6072    0.0000 C   0  0  0  0  0  0  0  0  0  0  0  0
    1.1369   -0.6468    0.0000 C   0  0  0  0  0  0  0  0  0  0  0  0
    2.9085   -1.1369    0.0000 C   0  0  0  0  0  0  0  0  0  0  0  0
    1.1369   -1.9604    0.0000 C   0  0  0  0  0  0  0  0  0  0  0  0
    2.2457   -3.9209    0.0000 C   0  0  0  0  0  0  0  0  0  0  0  0
    4.0173   -0.4740    0.0000 C   0  0  0  0  0  0  0  0  0  0  0  0
    4.0173   -1.8158    0.0000 C   0  0  0  0  0  0  0  0  0  0  0  0
    0.0000   -2.6072    0.0000 O   0  0  0  0  0  0  0  0  0  0  0  0
  1  2  1  0  0  0  0 
  1  3  1  0  0  0  0 
  2  4  1  0  0  0  0 
  3  5  1  0  0  0  0 
  3  6  1  1  0  0  0 
  4  7  1  0  0  0  0 
  4  6  1  1  0  0  0 
  4  8  1  0  0  0  0 
  5  7  1  0  0  0  0 
  6  9  1  0  0  0  0 
  6 10  1  0  0  0  0 
  7 11  2  0  0  0  0 
M  END
> <Name>
Bicyclo(2.2.1)heptan-2-one, 1,7,7-trimethyl-, (1S,4S)-

> <Source>
DSSTox2DMolFile

> <Tox>
3.952

> <CAS>
464-48-2

$$$$

  CDK

 12 12  0  0  0  0  0  0  0  0999 V2000
    3.4541   -2.6597    0.0000 N   0  0  0  0  0  0  0  0  0  0  0  0
    2.3004   -1.9896    0.0000 C   0  0  0  0  0  0  0  0  0  0  0  0
    4.6078   -1.9896    0.0000 C   0  0  0  0  0  0  0  0  0  0  0  0
    1.1537   -2.6597    0.0000 C   0  0  0  0  0  0  0  0  0  0  0  0
    2.3004   -0.6632    0.0000 C   0  0  0  0  0  0  0  0  0  0  0  0
    4.6078   -0.6632    0.0000 C   0  0  0  0  0  0  0  0  0  0  0  0
    5.7546   -2.6597    0.0000 C   0  0  0  0  0  0  0  0  0  0  0  0
    1.1537   -3.9861    0.0000 O   0  0  0  0  0  0  0  0  0  0  0  0
    0.0000   -1.9896    0.0000 O   0  0  0  0  0  0  0  0  0  0  0  0
    3.4541   -0.0000    0.0000 C   0  0  0  0  0  0  0  0  0  0  0  0
    5.7546   -3.9861    0.0000 O   0  0  0  0  0  0  0  0  0  0  0  0
    6.9082   -1.9896    0.0000 O   0  0  0  0  0  0  0  0  0  0  0  0
  1  2  2  0  0  0  0 
  1  3  1  0  0  0  0 
  2  4  1  0  0  0  0 
  2  5  1  0  0  0  0 
  6  3  2  0  0  0  0 
  3  7  1  0  0  0  0 
  4  8  2  0  0  0  0 
  4  9  1  0  0  0  0 
  5 10  2  0  0  0  0 
 10  6  1  0  0  0  0 
  7 11  2  0  0  0  0 
  7 12  1  0  0  0  0 
M  END
> <Name>
2,6-Pyridinedicarboxylic acid

> <Source>
DSSTox2DMolFile

> <Tox>
2.715

> <CAS>
499-83-2

$$$$

  CDK

 17 17  0  0  0  0  0  0  0  0999 V2000
   -2.7524   -0.1298    0.0430 P   0  0  0  0  0  0  0  0  0  0  0  0
   -2.2071   -1.0471   -1.2714 O   0  0  0  0  0  0  0  0  0  0  0  0
   -1.3677   -0.2879    1.0460 O   0  0  0  0  0  0  0  0  0  0  0  0
   -2.4800    1.3968   -0.6536 O   0  0  0  0  0  0  0  0  0  0  0  0
   -4.3996   -0.5225    0.9444 S   0  0  0  0  0  0  0  0  0  0  0  0
   -2.9086   -1.0360   -2.4747 C   0  0  0  0  0  0  0  0  0  0  0  0
   -0.0632   -0.3861    0.6781 C   0  0  0  0  0  0  0  0  0  0  0  0
   -2.7306    2.5579    0.0709 C   0  0  0  0  0  0  0  0  0  0  0  0
    0.6851    0.7610    0.3798 C   0  0  0  0  0  0  0  0  0  0  0  0
    0.5624   -1.6454    0.7323 C   0  0  0  0  0  0  0  0  0  0  0  0
    2.0515    0.6477    0.1346 C   0  0  0  0  0  0  0  0  0  0  0  0
    1.9208   -1.7428    0.4861 C   0  0  0  0  0  0  0  0  0  0  0  0
    2.6836   -0.6028    0.1881 C   0  0  0  0  0  0  0  0  0  0  0  0
    2.8834    2.0563   -0.2378 Cl  0  0  0  0  0  0  0  0  0  0  0  0
    4.1507   -0.7681   -0.0563 N   0  0  0  0  0  0  0  0  0  0  0  0
    4.9135    0.1338    0.2217 O   0  0  0  0  0  0  0  0  0  0  0  0
    4.5541   -1.8164   -0.5208 O   0  0  0  0  0  0  0  0  0  0  0  0
  1  2  1  0  0  0  0 
  1  3  1  0  0  0  0 
  1  4  1  0  0  0  0 
  1  5  2  0  0  0  0 
  2  6  1  0  0  0  0 
  3  7  1  0  0  0  0 
  4  8  1  0  0  0  0 
  7  9  1  0  0  0  0 
  7 10  2  0  0  0  0 
  9 11  2  0  0  0  0 
 12 10  1  0  0  0  0 
 11 13  1  0  0  0  0 
 11 14  1  0  0  0  0 
 13 12  2  0  0  0  0 
 13 15  1  0  0  0  0 
 15 16  2  0  0  0  0 
 15 17  1  0  0  0  0 
M  CHG  1  15   1
M  CHG  1  17  -1
M  END
> <Name>
Phosphorothioic acid, O-(3-chloro-4-nitrophenyl) O,O-dimethyl ester

> <Source>
DougDB3DMolFile

> <Tox>
5.027

> <CAS>
500-28-7

$$$$

  CDK

  8  7  0  0  0  0  0  0  0  0999 V2000
    3.3237   -1.9950    0.0000 O   0  0  0  0  0  0  0  0  0  0  0  0
    1.9950   -1.9950    0.0000 P   0  0  0  0  0  0  0  0  0  0  0  0
    1.9950   -3.3237    0.0000 O   0  0  0  0  0  0  0  0  0  0  0  0
    0.6663   -1.9950    0.0000 O   0  0  0  0  0  0  0  0  0  0  0  0
    1.9950   -0.6663    0.0000 O   0  0  0  0  0  0  0  0  0  0  0  0
    3.1481   -3.9900    0.0000 C   0  0  0  0  0  0  0  0  0  0  0  0
    0.0000   -3.1481    0.0000 C   0  0  0  0  0  0  0  0  0  0  0  0
    3.1481   -0.0000    0.0000 C   0  0  0  0  0  0  0  0  0  0  0  0
  1  2  2  0  0  0  0 
  2  3  1  0  0  0  0 
  2  4  1  0  0  0  0 
  2  5  1  0  0  0  0 
  3  6  1  0  0  0  0 
  4  7  1  0  0  0  0 
  5  8  1  0  0  0  0 
M  END
> <Name>
Phosphoric acid, trimethyl ester

> <Source>
DSSTox2DMolFile

> <Tox>
1.301

> <CAS>
512-56-1

$$$$

  CDK

 22 24  0  0  0  0  0  0  0  0999 V2000
    2.4185   -2.6429    0.0000 C   0  0  0  0  0  0  0  0  0  0  0  0
    2.3686   -4.1056    0.0000 C   0  0  0  0  0  0  0  0  0  0  0  0
    1.1801   -3.4324    0.0000 C   0  0  0  0  0  0  0  0  0  0  0  0
    3.5654   -3.4324    0.0000 C   0  0  0  0  0  0  0  0  0  0  0  0
    2.3686   -5.4852    0.0000 C   0  0  0  0  0  0  0  0  0  0  0  0
    0.0000   -4.1056    0.0000 C   0  0  0  0  0  0  0  0  0  0  0  0
    4.7455   -4.1056    0.0000 C   0  0  0  0  0  0  0  0  0  0  0  0
    3.5654   -2.0694    0.0000 C   0  0  0  0  0  0  0  0  0  0  0  0
    1.1801   -6.1750    0.0000 C   0  0  0  0  0  0  0  0  0  0  0  0
    3.5654   -6.1750    0.0000 C   0  0  0  0  0  0  0  0  0  0  0  0
    0.0000   -5.4852    0.0000 C   0  0  0  0  0  0  0  0  0  0  0  0
    4.7455   -5.4852    0.0000 C   0  0  0  0  0  0  0  0  0  0  0  0
    5.9423   -3.4324    0.0000 C   0  0  0  0  0  0  0  0  0  0  0  0
    4.7455   -1.3630    0.0000 C   0  0  0  0  0  0  0  0  0  0  0  0
    0.0997   -7.0975    0.0000 C   0  0  0  0  0  0  0  0  0  0  0  0
    1.8699   -7.3551    0.0000 C   0  0  0  0  0  0  0  0  0  0  0  0
    5.9423   -2.0694    0.0000 C   0  0  0  0  0  0  0  0  0  0  0  0
    1.3796   -8.2277    0.0000 O   0  0  0  0  0  0  0  0  0  0  0  0
    2.8756   -7.3551    0.0000 O   0  0  0  0  0  0  0  0  0  0  0  0
    7.1307   -1.3630    0.0000 C   0  0  0  0  0  0  0  0  0  0  0  0
    8.3109   -2.0694    0.0000 C   0  0  0  0  0  0  0  0  0  0  0  0
    7.1307   -0.0000    0.0000 C   0  0  0  0  0  0  0  0  0  0  0  0
  2  1  1  1  0  0  0 
  2  3  1  0  0  0  0 
  2  4  1  0  0  0  0 
  2  5  1  0  0  0  0 
  3  6  1  0  0  0  0 
  7  4  1  0  0  0  0 
  4  8  1  0  0  0  0 
  5  9  1  0  0  0  0 
  5 10  1  0  0  0  0 
  6 11  1  0  0  0  0 
  7 12  2  0  0  0  0 
  7 13  1  0  0  0  0 
 14  8  1  0  0  0  0 
  9 15  1  1  0  0  0 
  9 16  1  6  0  0  0 
  9 11  1  0  0  0  0 
 12 10  1  0  0  0  0 
 17 13  2  0  0  0  0 
 17 14  1  0  0  0  0 
 18 16  1  0  0  0  0 
 16 19  2  0  0  0  0 
 17 20  1  0  0  0  0 
 20 21  1  0  0  0  0 
 20 22  1  0  0  0  0 
M  END
> <Name>
1-Phenanthrenecarboxylic acid, 1,2,3,4,4a,4b,5,6,10,10a-decahydro-1,4a-dimethyl-7-(1-methylethyl)-, (1R,4aR,4bR,10aR)-

> <Source>
DSSTox2DMolFile

> <Tox>
5.104

> <CAS>
514-10-3

$$$$

  CDK

 10 10  0  0  0  0  0  0  0  0999 V2000
    5.3182   -2.3028    0.0000 O   0  0  0  0  0  0  0  0  0  0  0  0
    3.9887   -2.3028    0.0000 C   0  0  0  0  0  0  0  0  0  0  0  0
    3.3239   -3.4568    0.0000 C   0  0  0  0  0  0  0  0  0  0  0  0
    3.3239   -1.1487    0.0000 C   0  0  0  0  0  0  0  0  0  0  0  0
    3.9887   -4.6056    0.0000 C   0  0  0  0  0  0  0  0  0  0  0  0
    1.9943   -3.4568    0.0000 C   0  0  0  0  0  0  0  0  0  0  0  0
    1.9943   -1.1487    0.0000 C   0  0  0  0  0  0  0  0  0  0  0  0
    3.9887   -0.0000    0.0000 C   0  0  0  0  0  0  0  0  0  0  0  0
    1.3296   -2.3028    0.0000 C   0  0  0  0  0  0  0  0  0  0  0  0
    0.0000   -2.3028    0.0000 C   0  0  0  0  0  0  0  0  0  0  0  0
  1  2  1  0  0  0  0 
  2  3  2  0  0  0  0 
  2  4  1  0  0  0  0 
  3  5  1  0  0  0  0 
  3  6  1  0  0  0  0 
  7  4  2  0  0  0  0 
  4  8  1  0  0  0  0 
  6  9  2  0  0  0  0 
  9  7  1  0  0  0  0 
  9 10  1  0  0  0  0 
M  END
> <Name>
Phenol, 2,4,6-trimethyl-

> <Source>
DSSTox2DMolFile

> <Tox>
4.020

> <CAS>
527-60-6

$$$$

  CDK

 12 12  0  0  0  0  0  0  0  0999 V2000
    3.3231   -0.0000    0.0000 O   0  0  0  0  0  0  0  0  0  0  0  0
    3.9877   -1.1485    0.0000 N   0  0  0  0  0  0  0  0  0  0  0  0
    5.3170   -1.1485    0.0000 O   0  0  0  0  0  0  0  0  0  0  0  0
    3.3231   -2.3076    0.0000 C   0  0  0  0  0  0  0  0  0  0  0  0
    1.9939   -2.3076    0.0000 C   0  0  0  0  0  0  0  0  0  0  0  0
    3.9877   -3.4507    0.0000 C   0  0  0  0  0  0  0  0  0  0  0  0
    1.3292   -3.4507    0.0000 C   0  0  0  0  0  0  0  0  0  0  0  0
    1.3292   -1.1485    0.0000 N   0  0  0  0  0  0  0  0  0  0  0  0
    3.3231   -4.6098    0.0000 C   0  0  0  0  0  0  0  0  0  0  0  0
    1.9939   -4.6098    0.0000 C   0  0  0  0  0  0  0  0  0  0  0  0
    0.0000   -1.1485    0.0000 O   0  0  0  0  0  0  0  0  0  0  0  0
    1.9939   -0.0000    0.0000 O   0  0  0  0  0  0  0  0  0  0  0  0
  1  2  1  0  0  0  0 
  2  3  2  0  0  0  0 
  2  4  1  0  0  0  0 
  5  4  2  0  0  0  0 
  6  4  1  0  0  0  0 
  7  5  1  0  0  0  0 
  5  8  1  0  0  0  0 
  9  6  2  0  0  0  0 
  7 10  2  0  0  0  0 
  8 11  2  0  0  0  0 
  8 12  1  0  0  0  0 
 10  9  1  0  0  0  0 
M  CHG  1   1  -1
M  CHG  1   2   1
M  CHG  1   8   1
M  CHG  1  12  -1
M  END
> <Name>
Benzene, 1,2-dinitro- (9CI)

> <Source>
DSSTox2DMolFile

> <Tox>
5.447

> <CAS>
528-29-0

$$$$

  CDK

  5  4  0  0  0  0  0  0  0  0999 V2000
    2.2970   -0.6707    0.0000 C   0  0  0  0  0  0  0  0  0  0  0  0
    3.4455   -0.0000    0.0000 C   0  0  0  0  0  0  0  0  0  0  0  0
    1.1485   -0.0000    0.0000 C   0  0  0  0  0  0  0  0  0  0  0  0
    4.5940   -0.6707    0.0000 Cl  0  0  0  0  0  0  0  0  0  0  0  0
    0.0000   -0.6707    0.0000 Cl  0  0  0  0  0  0  0  0  0  0  0  0
  1  2  2  0  0  0  0 
  1  3  1  0  0  0  0 
  2  4  1  0  0  0  0 
  5  3  1  0  0  0  0 
M  END
> <Name>
1-Propene, 1,3-dichloro-

> <Source>
DSSTox2DMolFile

> <Tox>
4.841

> <CAS>
542-75-6

$$$$

  CDK

 22 23  0  0  0  0  0  0  0  0999 V2000
    4.1225   -1.0372    0.0000 C   0  0  0  0  0  0  0  0  0  0  0  0
    3.4398   -2.2057    0.0000 C   0  0  0  0  0  0  0  0  0  0  0  0
    4.8183   -2.2057    0.0000 C   0  0  0  0  0  0  0  0  0  0  0  0
    3.5186   -0.0131    0.0000 C   0  0  0  0  0  0  0  0  0  0  0  0
    4.7133   -0.0000    0.0000 C   0  0  0  0  0  0  0  0  0  0  0  0
    2.2976   -2.8490    0.0000 C   0  0  0  0  0  0  0  0  0  0  0  0
    5.9212   -2.8227    0.0000 C   0  0  0  0  0  0  0  0  0  0  0  0
    1.1554   -2.1925    0.0000 C   0  0  0  0  0  0  0  0  0  0  0  0
    7.0897   -2.1532    0.0000 O   0  0  0  0  0  0  0  0  0  0  0  0
    5.9212   -4.2144    0.0000 O   0  0  0  0  0  0  0  0  0  0  0  0
    1.1554   -0.8796    0.0000 C   0  0  0  0  0  0  0  0  0  0  0  0
    0.0000   -2.8490    0.0000 C   0  0  0  0  0  0  0  0  0  0  0  0
    8.4026   -2.5864    0.0000 C   0  0  0  0  0  0  0  0  0  0  0  0
    8.8358   -3.8599    0.0000 C   0  0  0  0  0  0  0  0  0  0  0  0
    9.4791   -1.7855    0.0000 C   0  0  0  0  0  0  0  0  0  0  0  0
   10.1487   -3.8599    0.0000 C   0  0  0  0  0  0  0  0  0  0  0  0
    7.9956   -4.9628    0.0000 C   0  0  0  0  0  0  0  0  0  0  0  0
   10.5163   -2.5470    0.0000 C   0  0  0  0  0  0  0  0  0  0  0  0
   10.9627   -4.9365    0.0000 C   0  0  0  0  0  0  0  0  0  0  0  0
   11.8161   -2.1400    0.0000 O   0  0  0  0  0  0  0  0  0  0  0  0
   12.3675   -4.9365    0.0000 C   0  0  0  0  0  0  0  0  0  0  0  0
   13.1290   -6.0000    0.0000 C   0  0  0  0  0  0  0  0  0  0  0  0
  1  2  1  0  0  0  0 
  1  3  1  0  0  0  0 
  1  4  1  0  0  0  0 
  1  5  1  0  0  0  0 
  2  6  1  1  0  0  0 
  2  3  1  0  0  0  0 
  3  7  1  6  0  0  0 
  6  8  2  0  0  0  0 
  7  9  1  0  0  0  0 
  7 10  2  0  0  0  0 
  8 11  1  0  0  0  0 
  8 12  1  0  0  0  0 
 13  9  1  0  0  0  0 
 14 13  1  0  0  0  0 
 13 15  1  0  0  0  0 
 16 14  2  0  0  0  0 
 14 17  1  0  0  0  0 
 18 15  1  0  0  0  0 
 16 19  1  0  0  0  0 
 16 18  1  0  0  0  0 
 18 20  2  0  0  0  0 
 21 19  1  0  0  0  0 
 21 22  2  0  0  0  0 
M  END
> <Name>
Cyclopropanecarboxylic acid, 2,2-dimethyl-3-(2-methylpropenyl)-, ester with 2-allyl-4-hydroxy-3-methyl-2-cyclopenten-1-one (VAN) (8CI)

> <Source>
DSSTox2DMolFile

> <Tox>
6.699

> <CAS>
584-79-2

$$$$

  CDK

  9  9  0  0  0  0  0  0  0  0999 V2000
    5.9806   -1.1542    0.0000 N   0  0  0  0  0  0  0  0  0  0  0  0
    4.6529   -1.1542    0.0000 C   0  0  0  0  0  0  0  0  0  0  0  0
    3.9890   -2.3025    0.0000 C   0  0  0  0  0  0  0  0  0  0  0  0
    3.9890   -0.0000    0.0000 C   0  0  0  0  0  0  0  0  0  0  0  0
    2.6554   -2.3025    0.0000 C   0  0  0  0  0  0  0  0  0  0  0  0
    2.6554   -0.0000    0.0000 C   0  0  0  0  0  0  0  0  0  0  0  0
    1.9915   -1.1542    0.0000 C   0  0  0  0  0  0  0  0  0  0  0  0
    0.6638   -1.1542    0.0000 C   0  0  0  0  0  0  0  0  0  0  0  0
    0.0000   -0.0000    0.0000 C   0  0  0  0  0  0  0  0  0  0  0  0
  1  2  1  0  0  0  0 
  2  3  2  0  0  0  0 
  2  4  1  0  0  0  0 
  3  5  1  0  0  0  0 
  6  4  2  0  0  0  0 
  5  7  2  0  0  0  0 
  7  6  1  0  0  0  0 
  7  8  1  0  0  0  0 
  8  9  1  0  0  0  0 
M  END
> <Name>
Aniline, p-ethyl- (8CI)

> <Source>
DSSTox2DMolFile

> <Tox>
3.220

> <CAS>
589-16-2

$$$$

  CDK

 21 22  0  0  0  0  0  0  0  0999 V2000
    1.1529   -4.9677    0.0000 C   0  0  0  0  0  0  0  0  0  0  0  0
    1.8184   -3.8149    0.0000 C   0  0  0  0  0  0  0  0  0  0  0  0
    1.1529   -2.6620    0.0000 C   0  0  0  0  0  0  0  0  0  0  0  0
    0.0000   -3.3275    0.0000 O   0  0  0  0  0  0  0  0  0  0  0  0
    0.4874   -1.5091    0.0000 C   0  0  0  0  0  0  0  0  0  0  0  0
    2.3058   -1.9965    0.0000 C   0  0  0  0  0  0  0  0  0  0  0  0
    3.4587   -2.6620    0.0000 C   0  0  0  0  0  0  0  0  0  0  0  0
    4.6116   -1.9965    0.0000 C   0  0  0  0  0  0  0  0  0  0  0  0
    4.6116   -0.6655    0.0000 C   0  0  0  0  0  0  0  0  0  0  0  0
    5.7551   -2.6620    0.0000 C   0  0  0  0  0  0  0  0  0  0  0  0
    3.4587   -0.0000    0.0000 C   0  0  0  0  0  0  0  0  0  0  0  0
    5.7551   -0.0000    0.0000 C   0  0  0  0  0  0  0  0  0  0  0  0
    6.9080   -1.9965    0.0000 C   0  0  0  0  0  0  0  0  0  0  0  0
    5.7551   -3.9929    0.0000 C   0  0  0  0  0  0  0  0  0  0  0  0
    4.6116   -3.3275    0.0000 C   0  0  0  0  0  0  0  0  0  0  0  0
    6.9080   -0.6655    0.0000 C   0  0  0  0  0  0  0  0  0  0  0  0
    8.0609   -2.6620    0.0000 C   0  0  0  0  0  0  0  0  0  0  0  0
    6.9080   -4.6584    0.0000 C   0  0  0  0  0  0  0  0  0  0  0  0
    9.3731   -2.8963    0.0000 C   0  0  0  0  0  0  0  0  0  0  0  0
    8.5202   -1.4153    0.0000 C   0  0  0  0  0  0  0  0  0  0  0  0
    8.0609   -3.9929    0.0000 C   0  0  0  0  0  0  0  0  0  0  0  0
  1  2  2  0  0  0  0 
  2  3  1  0  0  0  0 
  3  4  1  0  0  0  0 
  3  5  1  0  0  0  0 
  3  6  1  0  0  0  0 
  6  7  1  0  0  0  0 
  7  8  1  0  0  0  0 
  8  9  1  0  0  0  0 
  8 10  1  0  0  0  0 
  9 11  2  0  0  0  0 
  9 12  1  0  0  0  0 
 13 10  1  0  0  0  0 
 14 10  1  0  0  0  0 
 10 15  1  0  0  0  0 
 12 16  1  0  0  0  0 
 16 13  1  0  0  0  0 
 13 17  1  0  0  0  0 
 18 14  1  0  0  0  0 
 17 19  1  0  0  0  0 
 17 20  1  0  0  0  0 
 17 21  1  0  0  0  0 
 21 18  1  0  0  0  0 
M  END
> <Name>
Labda-8(20),14-dien-13-ol, (13R)- (8CI)

> <Source>
DSSTox2DMolFile

> <Tox>
6.384

> <CAS>
596-85-0

$$$$

  CDK

  6  5  0  0  0  0  0  0  0  0999 V2000
    3.3250   -1.1509    0.0000 C   0  0  0  0  0  0  0  0  0  0  0  0
    1.9943   -1.1509    0.0000 C   0  0  0  0  0  0  0  0  0  0  0  0
    1.3307   -0.0000    0.0000 C   0  0  0  0  0  0  0  0  0  0  0  0
    1.3307   -2.3053    0.0000 C   0  0  0  0  0  0  0  0  0  0  0  0
    1.9943   -3.4563    0.0000 C   0  0  0  0  0  0  0  0  0  0  0  0
    0.0000   -2.3053    0.0000 N   0  0  0  0  0  0  0  0  0  0  0  0
  1  2  1  0  0  0  0 
  2  3  1  0  0  0  0 
  2  4  1  0  0  0  0 
  4  5  1  0  0  0  0 
  4  6  1  0  0  0  0 
M  END
> <Name>
Propylamine, 1,2-dimethyl-

> <Source>
DSSTox2DMolFile

> <Tox>
2.487

> <CAS>
598-74-3

$$$$

  CDK

 13 13  0  0  0  0  0  0  0  0999 V2000
    4.5940   -2.6621    0.0000 C   0  0  0  0  0  0  0  0  0  0  0  0
    4.5940   -3.9903    0.0000 C   0  0  0  0  0  0  0  0  0  0  0  0
    3.4441   -1.9894    0.0000 C   0  0  0  0  0  0  0  0  0  0  0  0
    5.7497   -1.9894    0.0000 C   0  0  0  0  0  0  0  0  0  0  0  0
    3.4441   -4.6457    0.0000 C   0  0  0  0  0  0  0  0  0  0  0  0
    2.2884   -2.6621    0.0000 C   0  0  0  0  0  0  0  0  0  0  0  0
    3.4441   -0.6555    0.0000 N   0  0  0  0  0  0  0  0  0  0  0  0
    2.2884   -3.9903    0.0000 C   0  0  0  0  0  0  0  0  0  0  0  0
    1.1384   -1.9894    0.0000 N   0  0  0  0  0  0  0  0  0  0  0  0
    2.2884   -0.0000    0.0000 O   0  0  0  0  0  0  0  0  0  0  0  0
    4.5940   -0.0000    0.0000 O   0  0  0  0  0  0  0  0  0  0  0  0
    0.0000   -2.6621    0.0000 O   0  0  0  0  0  0  0  0  0  0  0  0
    1.1384   -0.6555    0.0000 O   0  0  0  0  0  0  0  0  0  0  0  0
  1  2  2  0  0  0  0 
  1  3  1  0  0  0  0 
  1  4  1  0  0  0  0 
  2  5  1  0  0  0  0 
  6  3  2  0  0  0  0 
  3  7  1  0  0  0  0 
  5  8  2  0  0  0  0 
  8  6  1  0  0  0  0 
  6  9  1  0  0  0  0 
  7 10  1  0  0  0  0 
  7 11  2  0  0  0  0 
  9 12  1  0  0  0  0 
  9 13  2  0  0  0  0 
M  CHG  1   7   1
M  CHG  1   9   1
M  CHG  1  10  -1
M  CHG  1  12  -1
M  END
> <Name>
Benzene, 1-methyl-2,3-dinitro-

> <Source>
DSSTox2DMolFile

> <Tox>
4.993

> <CAS>
602-01-7

$$$$

  CDK

 12 12  0  0  0  0  0  0  0  0999 V2000
    0.0000   -2.3036    0.0000 Cl  0  0  0  0  0  0  0  0  0  0  0  0
    1.3300   -2.3036    0.0000 C   0  0  0  0  0  0  0  0  0  0  0  0
    1.9950   -1.1491    0.0000 C   0  0  0  0  0  0  0  0  0  0  0  0
    1.9950   -3.4581    0.0000 C   0  0  0  0  0  0  0  0  0  0  0  0
    3.3250   -1.1491    0.0000 C   0  0  0  0  0  0  0  0  0  0  0  0
    1.3300   -0.0000    0.0000 Cl  0  0  0  0  0  0  0  0  0  0  0  0
    3.3250   -3.4581    0.0000 C   0  0  0  0  0  0  0  0  0  0  0  0
    1.3300   -4.6072    0.0000 Cl  0  0  0  0  0  0  0  0  0  0  0  0
    3.9901   -2.3036    0.0000 C   0  0  0  0  0  0  0  0  0  0  0  0
    3.9901   -0.0000    0.0000 Cl  0  0  0  0  0  0  0  0  0  0  0  0
    3.9901   -4.6072    0.0000 Cl  0  0  0  0  0  0  0  0  0  0  0  0
    5.3201   -2.3036    0.0000 Cl  0  0  0  0  0  0  0  0  0  0  0  0
  1  2  1  0  0  0  0 
  2  3  1  0  0  0  0 
  2  4  1  0  0  0  0 
  3  5  1  0  0  0  0 
  3  6  1  0  0  0  0 
  7  4  1  0  0  0  0 
  4  8  1  0  0  0  0 
  5  9  1  0  0  0  0 
  5 10  1  0  0  0  0 
  9  7  1  0  0  0  0 
  7 11  1  0  0  0  0 
  9 12  1  0  0  0  0 
M  END
> <Name>
Cyclohexane, 1,2,3,4,5,6-hexachloro-

> <Source>
DSSTox2DMolFile

> <Tox>
4.726

> <CAS>
608-73-1

$$$$

  CDK

  9  9  0  0  0  0  0  0  0  0999 V2000
    4.6082   -0.0000    0.0000 N   0  0  0  0  0  0  0  0  0  0  0  0
    3.4561   -0.6636    0.0000 C   0  0  0  0  0  0  0  0  0  0  0  0
    3.4561   -1.9953    0.0000 C   0  0  0  0  0  0  0  0  0  0  0  0
    2.3041   -0.0000    0.0000 C   0  0  0  0  0  0  0  0  0  0  0  0
    4.6082   -2.6589    0.0000 Cl  0  0  0  0  0  0  0  0  0  0  0  0
    2.3041   -2.6589    0.0000 C   0  0  0  0  0  0  0  0  0  0  0  0
    1.1520   -0.6636    0.0000 C   0  0  0  0  0  0  0  0  0  0  0  0
    1.1520   -1.9953    0.0000 C   0  0  0  0  0  0  0  0  0  0  0  0
    0.0000   -2.6589    0.0000 C   0  0  0  0  0  0  0  0  0  0  0  0
  1  2  1  0  0  0  0 
  2  3  2  0  0  0  0 
  2  4  1  0  0  0  0 
  3  5  1  0  0  0  0 
  3  6  1  0  0  0  0 
  7  4  2  0  0  0  0 
  6  8  2  0  0  0  0 
  8  7  1  0  0  0  0 
  8  9  1  0  0  0  0 
M  END
> <Name>
Benzenamine, 2-chloro-4-methyl-

> <Source>
DSSTox2DMolFile

> <Tox>
3.594

> <CAS>
615-65-6

$$$$

  CDK

 13 13  0  0  0  0  0  0  0  0999 V2000
   -0.0003    1.9860   -0.0049 C   0  0  0  0  0  0  0  0  0  0  0  0
   -1.2073    1.2876   -0.0045 C   0  0  0  0  0  0  0  0  0  0  0  0
    1.2071    1.2888   -0.0045 C   0  0  0  0  0  0  0  0  0  0  0  0
   -0.0030    3.4725    0.0063 C   0  0  0  0  0  0  0  0  0  0  0  0
   -1.2068   -0.1116   -0.0006 C   0  0  0  0  0  0  0  0  0  0  0  0
    1.2073   -0.1106   -0.0007 C   0  0  0  0  0  0  0  0  0  0  0  0
    0.0006   -0.8158    0.0015 C   0  0  0  0  0  0  0  0  0  0  0  0
   -2.5133   -0.8585    0.0003 N   0  0  0  0  0  0  0  0  0  0  0  0
    2.5142   -0.8569    0.0002 N   0  0  0  0  0  0  0  0  0  0  0  0
   -3.5507   -0.2279   -0.0006 O   0  0  0  0  0  0  0  0  0  0  0  0
   -2.5021   -2.0711    0.0020 O   0  0  0  0  0  0  0  0  0  0  0  0
    2.5032   -2.0696    0.0013 O   0  0  0  0  0  0  0  0  0  0  0  0
    3.5515   -0.2263    0.0000 O   0  0  0  0  0  0  0  0  0  0  0  0
  1  2  1  0  0  0  0 
  1  3  2  0  0  0  0 
  1  4  1  0  0  0  0 
  2  5  2  0  0  0  0 
  3  6  1  0  0  0  0 
  7  5  1  0  0  0  0 
  5  8  1  0  0  0  0 
  7  6  2  0  0  0  0 
  6  9  1  0  0  0  0 
  8 10  2  0  0  0  0 
  8 11  1  0  0  0  0 
  9 12  2  0  0  0  0 
  9 13  1  0  0  0  0 
M  CHG  1   8   1
M  CHG  1   9   1
M  CHG  1  11  -1
M  CHG  1  13  -1
M  END
> <Name>
Benzene, 1-methyl-3,5-dinitro- (9CI)

> <Source>
DougDB3DMolFile

> <Tox>
3.912

> <CAS>
618-85-9

$$$$

  CDK

 12 12  0  0  0  0  0  0  0  0999 V2000
    2.6616   -0.0000    0.0000 C   0  0  0  0  0  0  0  0  0  0  0  0
    3.9924   -0.0000    0.0000 C   0  0  0  0  0  0  0  0  0  0  0  0
    1.9962   -1.1511    0.0000 C   0  0  0  0  0  0  0  0  0  0  0  0
    4.6578   -1.1511    0.0000 C   0  0  0  0  0  0  0  0  0  0  0  0
    2.6616   -2.3023    0.0000 C   0  0  0  0  0  0  0  0  0  0  0  0
    0.6654   -1.1511    0.0000 C   0  0  0  0  0  0  0  0  0  0  0  0
    5.9885   -1.1511    0.0000 N   0  0  0  0  0  0  0  0  0  0  0  0
    3.9924   -2.3023    0.0000 C   0  0  0  0  0  0  0  0  0  0  0  0
    0.0000   -2.3023    0.0000 O   0  0  0  0  0  0  0  0  0  0  0  0
    0.0000   -0.0000    0.0000 N   0  0  0  0  0  0  0  0  0  0  0  0
    6.6539   -0.0000    0.0000 O   0  0  0  0  0  0  0  0  0  0  0  0
    6.6539   -2.3023    0.0000 O   0  0  0  0  0  0  0  0  0  0  0  0
  1  2  2  0  0  0  0 
  1  3  1  0  0  0  0 
  2  4  1  0  0  0  0 
  5  3  2  0  0  0  0 
  3  6  1  0  0  0  0 
  4  7  1  0  0  0  0 
  4  8  2  0  0  0  0 
  8  5  1  0  0  0  0 
  6  9  2  0  0  0  0 
  6 10  1  0  0  0  0 
  7 11  1  0  0  0  0 
  7 12  2  0  0  0  0 
M  CHG  1   7   1
M  CHG  1  11  -1
M  END
> <Name>
Benzamide, 4-nitro-

> <Source>
DSSTox2DMolFile

> <Tox>
3.097

> <CAS>
619-80-7

$$$$

  CDK

  9  9  0  0  0  0  0  0  0  0999 V2000
    0.0000   -0.0000    0.0000 O   0  0  0  0  0  0  0  0  0  0  0  0
    1.3283   -0.0000    0.0000 C   0  0  0  0  0  0  0  0  0  0  0  0
    1.9925   -1.1548    0.0000 C   0  0  0  0  0  0  0  0  0  0  0  0
    3.3269   -1.1548    0.0000 N   0  0  0  0  0  0  0  0  0  0  0  0
    3.9910   -0.0000    0.0000 C   0  0  0  0  0  0  0  0  0  0  0  0
    3.9910   -2.3037    0.0000 C   0  0  0  0  0  0  0  0  0  0  0  0
    5.3194   -0.0000    0.0000 C   0  0  0  0  0  0  0  0  0  0  0  0
    5.3194   -2.3037    0.0000 C   0  0  0  0  0  0  0  0  0  0  0  0
    5.9836   -1.1548    0.0000 O   0  0  0  0  0  0  0  0  0  0  0  0
  1  2  1  0  0  0  0 
  2  3  1  0  0  0  0 
  3  4  1  0  0  0  0 
  4  5  1  0  0  0  0 
  4  6  1  0  0  0  0 
  5  7  1  0  0  0  0 
  8  6  1  0  0  0  0 
  7  9  1  0  0  0  0 
  9  8  1  0  0  0  0 
M  END
> <Name>
2-Morpholinoethanol

> <Source>
DSSTox2DMolFile

> <Tox>
1.685

> <CAS>
622-40-2

$$$$

  CDK

 10 10  0  0  0  0  0  0  0  0999 V2000
    7.3120   -1.1553    0.0000 O   0  0  0  0  0  0  0  0  0  0  0  0
    5.9812   -1.1553    0.0000 C   0  0  0  0  0  0  0  0  0  0  0  0
    5.3158   -2.3033    0.0000 C   0  0  0  0  0  0  0  0  0  0  0  0
    5.3158   -0.0000    0.0000 C   0  0  0  0  0  0  0  0  0  0  0  0
    3.9850   -2.3033    0.0000 C   0  0  0  0  0  0  0  0  0  0  0  0
    3.9850   -0.0000    0.0000 C   0  0  0  0  0  0  0  0  0  0  0  0
    3.3270   -1.1553    0.0000 C   0  0  0  0  0  0  0  0  0  0  0  0
    1.9962   -1.1553    0.0000 C   0  0  0  0  0  0  0  0  0  0  0  0
    1.3308   -0.0000    0.0000 C   0  0  0  0  0  0  0  0  0  0  0  0
    0.0000   -0.0000    0.0000 C   0  0  0  0  0  0  0  0  0  0  0  0
  1  2  1  0  0  0  0 
  2  3  2  0  0  0  0 
  2  4  1  0  0  0  0 
  3  5  1  0  0  0  0 
  6  4  2  0  0  0  0 
  5  7  2  0  0  0  0 
  7  6  1  0  0  0  0 
  7  8  1  0  0  0  0 
  8  9  1  0  0  0  0 
  9 10  1  0  0  0  0 
M  END
> <Name>
Phenol, 4-propyl-

> <Source>
DSSTox2DMolFile

> <Tox>
4.093

> <CAS>
645-56-7

$$$$

  CDK

  8  7  0  0  0  0  0  0  0  0999 V2000
    3.9901   -1.1531    0.0000 C   0  0  0  0  0  0  0  0  0  0  0  0
    2.6614   -1.1531    0.0000 C   0  0  0  0  0  0  0  0  0  0  0  0
    1.9951   -0.0000    0.0000 O   0  0  0  0  0  0  0  0  0  0  0  0
    1.9951   -2.3023    0.0000 N   0  0  0  0  0  0  0  0  0  0  0  0
    2.6614   -3.4554    0.0000 C   0  0  0  0  0  0  0  0  0  0  0  0
    0.6664   -2.3023    0.0000 C   0  0  0  0  0  0  0  0  0  0  0  0
    3.9901   -3.4554    0.0000 C   0  0  0  0  0  0  0  0  0  0  0  0
    0.0000   -3.4554    0.0000 C   0  0  0  0  0  0  0  0  0  0  0  0
  1  2  1  0  0  0  0 
  2  3  2  0  0  0  0 
  2  4  1  0  0  0  0 
  4  5  1  0  0  0  0 
  4  6  1  0  0  0  0 
  5  7  1  0  0  0  0 
  6  8  1  0  0  0  0 
M  END
> <Name>
Acetamide, N,N-diethyl-

> <Source>
DSSTox2DMolFile

> <Tox>
1.885

> <CAS>
685-91-6

$$$$

  CDK

 13 12  0  0  0  0  0  0  0  0999 V2000
   10.3634   -1.3242    0.0000 N   0  0  0  0  0  0  0  0  0  0  0  0
   11.5149   -1.9921    0.0000 O   0  0  0  0  0  0  0  0  0  0  0  0
    9.2119   -1.9921    0.0000 O   0  0  0  0  0  0  0  0  0  0  0  0
   10.3634   -0.0000    0.0000 O   0  0  0  0  0  0  0  0  0  0  0  0
    8.0604   -1.3242    0.0000 C   0  0  0  0  0  0  0  0  0  0  0  0
    6.9090   -1.9921    0.0000 C   0  0  0  0  0  0  0  0  0  0  0  0
    5.7575   -1.3242    0.0000 O   0  0  0  0  0  0  0  0  0  0  0  0
    4.6060   -1.9921    0.0000 C   0  0  0  0  0  0  0  0  0  0  0  0
    3.4545   -1.3242    0.0000 C   0  0  0  0  0  0  0  0  0  0  0  0
    2.3030   -1.9921    0.0000 O   0  0  0  0  0  0  0  0  0  0  0  0
    1.1515   -1.3242    0.0000 N   0  0  0  0  0  0  0  0  0  0  0  0
    1.1515   -0.0000    0.0000 O   0  0  0  0  0  0  0  0  0  0  0  0
    0.0000   -1.9921    0.0000 O   0  0  0  0  0  0  0  0  0  0  0  0
  1  2  2  0  0  0  0 
  1  3  1  0  0  0  0 
  1  4  1  0  0  0  0 
  3  5  1  0  0  0  0 
  5  6  1  0  0  0  0 
  7  6  1  0  0  0  0 
  7  8  1  0  0  0  0 
  8  9  1  0  0  0  0 
  9 10  1  0  0  0  0 
 10 11  1  0  0  0  0 
 12 11  1  0  0  0  0 
 11 13  2  0  0  0  0 
M  CHG  1   1   1
M  CHG  1   4  -1
M  CHG  1  11   1
M  CHG  1  12  -1
M  END
> <Name>
Ethanol, 2,2'-oxybis-, dinitrate

> <Source>
DSSTox2DMolFile

> <Tox>
2.601

> <CAS>
693-21-0

$$$$

  CDK

 13 13  0  0  0  0  0  0  0  0999 V2000
    4.6532   -3.4567    0.0000 C   0  0  0  0  0  0  0  0  0  0  0  0
    5.9827   -3.4567    0.0000 C   0  0  0  0  0  0  0  0  0  0  0  0
    3.9885   -4.6067    0.0000 C   0  0  0  0  0  0  0  0  0  0  0  0
    3.9885   -2.3000    0.0000 C   0  0  0  0  0  0  0  0  0  0  0  0
    6.6474   -2.3000    0.0000 O   0  0  0  0  0  0  0  0  0  0  0  0
    4.6532   -5.7567    0.0000 O   0  0  0  0  0  0  0  0  0  0  0  0
    2.6590   -4.6067    0.0000 C   0  0  0  0  0  0  0  0  0  0  0  0
    2.6590   -2.3000    0.0000 C   0  0  0  0  0  0  0  0  0  0  0  0
    4.6532   -1.1500    0.0000 O   0  0  0  0  0  0  0  0  0  0  0  0
    1.9942   -3.4567    0.0000 C   0  0  0  0  0  0  0  0  0  0  0  0
    3.9885   -0.0000    0.0000 C   0  0  0  0  0  0  0  0  0  0  0  0
    0.6647   -3.4567    0.0000 O   0  0  0  0  0  0  0  0  0  0  0  0
    0.0000   -4.6067    0.0000 C   0  0  0  0  0  0  0  0  0  0  0  0
  1  2  1  0  0  0  0 
  1  3  2  0  0  0  0 
  1  4  1  0  0  0  0 
  2  5  2  0  0  0  0 
  3  6  1  0  0  0  0 
  3  7  1  0  0  0  0 
  8  4  2  0  0  0  0 
  4  9  1  0  0  0  0 
  7 10  2  0  0  0  0 
 10  8  1  0  0  0  0 
  9 11  1  0  0  0  0 
 10 12  1  0  0  0  0 
 12 13  1  0  0  0  0 
M  END
> <Name>
4,6-Dimethoxysalicylaldehyde

> <Source>
DSSTox2DMolFile

> <Tox>
4.832

> <CAS>
708-76-9

$$$$

  CDK

  7  6  0  0  0  0  0  0  0  0999 V2000
    2.0006   -1.3282    0.0000 P   0  0  0  0  0  0  0  0  0  0  0  0
    0.6724   -1.3282    0.0000 O   0  0  0  0  0  0  0  0  0  0  0  0
    2.0006   -2.6563    0.0000 O   0  0  0  0  0  0  0  0  0  0  0  0
    3.3287   -1.3282    0.0000 S   0  0  0  0  0  0  0  0  0  0  0  0
    2.0006   -0.0000    0.0000 S   0  0  0  0  0  0  0  0  0  0  0  0
    0.0000   -0.1764    0.0000 C   0  0  0  0  0  0  0  0  0  0  0  0
    0.8488   -3.3287    0.0000 C   0  0  0  0  0  0  0  0  0  0  0  0
  1  2  1  0  0  0  0 
  1  3  1  0  0  0  0 
  1  4  1  0  0  0  0 
  1  5  2  0  0  0  0 
  2  6  1  0  0  0  0 
  3  7  1  0  0  0  0 
M  END
> <Name>
Phosphorodithioic acid, O,O-dimethyl ester

> <Source>
DSSTox2DMolFile

> <Tox>
3.828

> <CAS>
756-80-9

$$$$

  CDK

  6  5  0  0  0  0  0  0  0  0999 V2000
    3.3247   -0.0000    0.0000 C   0  0  0  0  0  0  0  0  0  0  0  0
    1.9948   -0.0000    0.0000 C   0  0  0  0  0  0  0  0  0  0  0  0
    1.3299   -1.1537    0.0000 C   0  0  0  0  0  0  0  0  0  0  0  0
    0.0000   -1.1537    0.0000 Cl  0  0  0  0  0  0  0  0  0  0  0  0
    1.9948   -2.3040    0.0000 C   0  0  0  0  0  0  0  0  0  0  0  0
    3.3247   -2.3040    0.0000 Cl  0  0  0  0  0  0  0  0  0  0  0  0
  1  2  2  0  0  0  0 
  2  3  1  0  0  0  0 
  3  4  1  0  0  0  0 
  3  5  1  0  0  0  0 
  5  6  1  0  0  0  0 
M  END
> <Name>
1-Butene, 3,4-dichloro- (racemic mixture)

> <Source>
DSSTox2DMolFile

> <Tox>
4.184

> <CAS>
760-23-6

$$$$

  CDK

  5  4  0  0  0  0  0  0  0  0999 V2000
    0.6659   -1.1502    0.0000 C   0  0  0  0  0  0  0  0  0  0  0  0
    0.0000   -0.0000    0.0000 O   0  0  0  0  0  0  0  0  0  0  0  0
    1.9978   -1.1502    0.0000 C   0  0  0  0  0  0  0  0  0  0  0  0
    3.3250   -1.1502    0.0000 C   0  0  0  0  0  0  0  0  0  0  0  0
    4.6568   -1.1502    0.0000 C   0  0  0  0  0  0  0  0  0  0  0  0
  1  2  1  0  0  0  0 
  1  3  1  0  0  0  0 
  3  4  3  0  0  0  0 
  4  5  1  0  0  0  0 
M  END
> <Name>
But-2-yn-1-ol

> <Source>
DSSTox2DMolFile

> <Tox>
3.841

> <CAS>
764-01-2

$$$$

  CDK

  8  7  0  0  0  0  0  0  0  0999 V2000
    5.7628   -1.9939    0.0000 C   0  0  0  0  0  0  0  0  0  0  0  0
    4.6103   -1.3312    0.0000 C   0  0  0  0  0  0  0  0  0  0  0  0
    4.6103   -0.0000    0.0000 C   0  0  0  0  0  0  0  0  0  0  0  0
    3.4577   -1.9939    0.0000 C   0  0  0  0  0  0  0  0  0  0  0  0
    2.3051   -1.3312    0.0000 C   0  0  0  0  0  0  0  0  0  0  0  0
    1.1526   -1.9939    0.0000 C   0  0  0  0  0  0  0  0  0  0  0  0
    0.0000   -1.3312    0.0000 C   0  0  0  0  0  0  0  0  0  0  0  0
    1.1526   -3.3252    0.0000 C   0  0  0  0  0  0  0  0  0  0  0  0
  1  2  1  0  0  0  0 
  2  3  1  0  0  0  0 
  2  4  2  0  0  0  0 
  4  5  1  0  0  0  0 
  5  6  2  0  0  0  0 
  6  7  1  0  0  0  0 
  6  8  1  0  0  0  0 
M  END
> <Name>
2,4-Hexadiene, 2,5-dimethyl-

> <Source>
DSSTox2DMolFile

> <Tox>
4.465

> <CAS>
764-13-6

$$$$

  CDK

 12 12  0  0  0  0  0  0  0  0999 V2000
    0.0000   -2.3036    0.0000 N   0  0  0  0  0  0  0  0  0  0  0  0
    1.3300   -2.3036    0.0000 C   0  0  0  0  0  0  0  0  0  0  0  0
    1.9950   -1.1491    0.0000 C   0  0  0  0  0  0  0  0  0  0  0  0
    1.9950   -3.4580    0.0000 C   0  0  0  0  0  0  0  0  0  0  0  0
    1.3300   -0.0000    0.0000 F   0  0  0  0  0  0  0  0  0  0  0  0
    3.3250   -1.1491    0.0000 C   0  0  0  0  0  0  0  0  0  0  0  0
    3.3250   -3.4580    0.0000 C   0  0  0  0  0  0  0  0  0  0  0  0
    1.3300   -4.6072    0.0000 F   0  0  0  0  0  0  0  0  0  0  0  0
    3.9901   -0.0000    0.0000 F   0  0  0  0  0  0  0  0  0  0  0  0
    3.9901   -2.3036    0.0000 C   0  0  0  0  0  0  0  0  0  0  0  0
    3.9901   -4.6072    0.0000 F   0  0  0  0  0  0  0  0  0  0  0  0
    5.3201   -2.3036    0.0000 F   0  0  0  0  0  0  0  0  0  0  0  0
  1  2  1  0  0  0  0 
  2  3  2  0  0  0  0 
  2  4  1  0  0  0  0 
  3  5  1  0  0  0  0 
  3  6  1  0  0  0  0 
  7  4  2  0  0  0  0 
  4  8  1  0  0  0  0 
  6  9  1  0  0  0  0 
  6 10  2  0  0  0  0 
 10  7  1  0  0  0  0 
  7 11  1  0  0  0  0 
 10 12  1  0  0  0  0 
M  END
> <Name>
Benzenamine, 2,3,4,5,6-pentafluoro-

> <Source>
DSSTox2DMolFile

> <Tox>
3.693

> <CAS>
771-60-8

$$$$

  CDK

  6  6  0  0  0  0  0  0  0  0999 V2000
    1.3304   -1.0738    0.0000 C   0  0  0  0  0  0  0  0  0  0  0  0
    0.0000   -1.0738    0.0000 Br  0  0  0  0  0  0  0  0  0  0  0  0
    2.1104   -0.0000    0.0000 C   0  0  0  0  0  0  0  0  0  0  0  0
    2.1104   -2.1509    0.0000 C   0  0  0  0  0  0  0  0  0  0  0  0
    3.3767   -0.4086    0.0000 S   0  0  0  0  0  0  0  0  0  0  0  0
    3.3767   -1.7390    0.0000 C   0  0  0  0  0  0  0  0  0  0  0  0
  1  2  1  0  0  0  0 
  1  3  2  0  0  0  0 
  1  4  1  0  0  0  0 
  3  5  1  0  0  0  0 
  6  4  2  0  0  0  0 
  5  6  1  0  0  0  0 
M  END
> <Name>
Thiophene, 3-bromo-

> <Source>
DSSTox2DMolFile

> <Tox>
4.421

> <CAS>
872-31-1

$$$$

  CDK

  7  6  0  0  0  0  0  0  0  0999 V2000
    0.0000   -1.1552    0.0000 C   0  0  0  0  0  0  0  0  0  0  0  0
    1.3288   -1.1552    0.0000 C   0  0  0  0  0  0  0  0  0  0  0  0
    1.9932   -2.3045    0.0000 C   0  0  0  0  0  0  0  0  0  0  0  0
    3.3280   -2.3045    0.0000 C   0  0  0  0  0  0  0  0  0  0  0  0
    3.9924   -1.1552    0.0000 C   0  0  0  0  0  0  0  0  0  0  0  0
    5.3212   -1.1552    0.0000 C   0  0  0  0  0  0  0  0  0  0  0  0
    5.9856   -0.0000    0.0000 O   0  0  0  0  0  0  0  0  0  0  0  0
  1  2  1  0  0  0  0 
  2  3  1  0  0  0  0 
  3  4  2  0  0  0  0 
  4  5  1  0  0  0  0 
  5  6  1  0  0  0  0 
  6  7  1  0  0  0  0 
M  END
> <Name>
3-Hexen-1-ol, (3Z)-

> <Source>
DSSTox2DMolFile

> <Tox>
2.420

> <CAS>
928-96-1

$$$$

  CDK

  7  6  0  0  0  0  0  0  0  0999 V2000
    0.0000   -0.6638    0.0000 C   0  0  0  0  0  0  0  0  0  0  0  0
    1.1548   -0.0000    0.0000 C   0  0  0  0  0  0  0  0  0  0  0  0
    2.3027   -0.6638    0.0000 C   0  0  0  0  0  0  0  0  0  0  0  0
    3.4575   -0.0000    0.0000 C   0  0  0  0  0  0  0  0  0  0  0  0
    4.6122   -0.6638    0.0000 C   0  0  0  0  0  0  0  0  0  0  0  0
    5.7601   -0.0000    0.0000 C   0  0  0  0  0  0  0  0  0  0  0  0
    6.9149   -0.6638    0.0000 O   0  0  0  0  0  0  0  0  0  0  0  0
  1  2  1  0  0  0  0 
  2  3  1  0  0  0  0 
  3  4  2  0  0  0  0 
  4  5  1  0  0  0  0 
  5  6  1  0  0  0  0 
  6  7  1  0  0  0  0 
M  END
> <Name>
3-Hexen-1-ol, (3E)-

> <Source>
DSSTox2DMolFile

> <Tox>
2.568

> <CAS>
928-97-2

$$$$

  CDK

 12 12  0  0  0  0  0  0  0  0999 V2000
    4.6544   -3.4542    0.0000 C   0  0  0  0  0  0  0  0  0  0  0  0
    3.3298   -3.4542    0.0000 C   0  0  0  0  0  0  0  0  0  0  0  0
    5.3203   -2.3052    0.0000 C   0  0  0  0  0  0  0  0  0  0  0  0
    2.6638   -2.3052    0.0000 C   0  0  0  0  0  0  0  0  0  0  0  0
    4.6544   -1.1490    0.0000 C   0  0  0  0  0  0  0  0  0  0  0  0
    6.6523   -2.3052    0.0000 C   0  0  0  0  0  0  0  0  0  0  0  0
    1.3319   -2.3052    0.0000 C   0  0  0  0  0  0  0  0  0  0  0  0
    3.3298   -1.1490    0.0000 C   0  0  0  0  0  0  0  0  0  0  0  0
    7.3182   -3.4542    0.0000 O   0  0  0  0  0  0  0  0  0  0  0  0
    7.3182   -1.1490    0.0000 O   0  0  0  0  0  0  0  0  0  0  0  0
    0.0000   -2.3052    0.0000 N   0  0  0  0  0  0  0  0  0  0  0  0
    6.6523   -0.0000    0.0000 C   0  0  0  0  0  0  0  0  0  0  0  0
  1  2  2  0  0  0  0 
  1  3  1  0  0  0  0 
  2  4  1  0  0  0  0 
  5  3  2  0  0  0  0 
  3  6  1  0  0  0  0 
  4  7  1  0  0  0  0 
  4  8  2  0  0  0  0 
  8  5  1  0  0  0  0 
  6  9  2  0  0  0  0 
  6 10  1  0  0  0  0 
  7 11  3  0  0  0  0 
 10 12  1  0  0  0  0 
M  END
> <Name>
Methyl 4-cyanobenzoate

> <Source>
DSSTox2DMolFile

> <Tox>
3.537

> <CAS>
1129-35-7

$$$$

  CDK

 12 12  0  0  0  0  0  0  0  0999 V2000
    0.0000   -2.3036    0.0000 O   0  0  0  0  0  0  0  0  0  0  0  0
    1.3300   -2.3036    0.0000 C   0  0  0  0  0  0  0  0  0  0  0  0
    1.9950   -1.1491    0.0000 C   0  0  0  0  0  0  0  0  0  0  0  0
    1.9950   -3.4580    0.0000 C   0  0  0  0  0  0  0  0  0  0  0  0
    1.3300   -0.0000    0.0000 O   0  0  0  0  0  0  0  0  0  0  0  0
    3.3250   -1.1491    0.0000 C   0  0  0  0  0  0  0  0  0  0  0  0
    3.3250   -3.4580    0.0000 C   0  0  0  0  0  0  0  0  0  0  0  0
    1.3300   -4.6072    0.0000 Cl  0  0  0  0  0  0  0  0  0  0  0  0
    3.9901   -0.0000    0.0000 Cl  0  0  0  0  0  0  0  0  0  0  0  0
    3.9901   -2.3036    0.0000 C   0  0  0  0  0  0  0  0  0  0  0  0
    3.9901   -4.6072    0.0000 Cl  0  0  0  0  0  0  0  0  0  0  0  0
    5.3201   -2.3036    0.0000 Cl  0  0  0  0  0  0  0  0  0  0  0  0
  1  2  1  0  0  0  0 
  2  3  2  0  0  0  0 
  2  4  1  0  0  0  0 
  3  5  1  0  0  0  0 
  3  6  1  0  0  0  0 
  7  4  2  0  0  0  0 
  4  8  1  0  0  0  0 
  6  9  1  0  0  0  0 
  6 10  2  0  0  0  0 
 10  7  1  0  0  0  0 
  7 11  1  0  0  0  0 
 10 12  1  0  0  0  0 
M  END
> <Name>
3,4,5,6-Tetrachloro-1,2-benzenediol  (9CI)

> <Source>
DSSTox2DMolFile

> <Tox>
5.290

> <CAS>
1198-55-6

$$$$

  CDK

  8  7  0  0  0  0  0  0  0  0999 V2000
    3.9911   -1.9955    0.0000 C   0  0  0  0  0  0  0  0  0  0  0  0
    2.6621   -1.9955    0.0000 C   0  0  0  0  0  0  0  0  0  0  0  0
    1.3290   -1.9955    0.0000 C   0  0  0  0  0  0  0  0  0  0  0  0
    0.0000   -1.9955    0.0000 C   0  0  0  0  0  0  0  0  0  0  0  0
    1.3290   -3.3246    0.0000 O   0  0  0  0  0  0  0  0  0  0  0  0
    1.3290   -0.6625    0.0000 C   0  0  0  0  0  0  0  0  0  0  0  0
    0.1796   -0.0000    0.0000 C   0  0  0  0  0  0  0  0  0  0  0  0
    2.4825   -0.0000    0.0000 C   0  0  0  0  0  0  0  0  0  0  0  0
  1  2  3  0  0  0  0 
  2  3  1  0  0  0  0 
  3  4  1  0  0  0  0 
  3  5  1  0  0  0  0 
  3  6  1  0  0  0  0 
  6  7  1  0  0  0  0 
  6  8  1  0  0  0  0 
M  END
> <Name>
1-Pentyn-3-ol, 3,4-dimethyl-

> <Source>
DSSTox2DMolFile

> <Tox>
2.738

> <CAS>
1482-15-1

$$$$

  CDK

  6  5  0  0  0  0  0  0  0  0999 V2000
    1.8169   -2.3040    0.0000 C   0  0  0  0  0  0  0  0  0  0  0  0
    1.1503   -1.1537    0.0000 C   0  0  0  0  0  0  0  0  0  0  0  0
    2.3040   -0.4870    0.0000 O   0  0  0  0  0  0  0  0  0  0  0  0
    0.0000   -1.8169    0.0000 C   0  0  0  0  0  0  0  0  0  0  0  0
    0.4870   -0.0000    0.0000 C   0  0  0  0  0  0  0  0  0  0  0  0
    3.4542   -1.1537    0.0000 C   0  0  0  0  0  0  0  0  0  0  0  0
  1  2  1  0  0  0  0 
  2  3  1  0  0  0  0 
  2  4  1  0  0  0  0 
  2  5  1  0  0  0  0 
  3  6  1  0  0  0  0 
M  END
> <Name>
Propane, 2-methoxy-2-methyl-

> <Source>
DSSTox2DMolFile

> <Tox>
2.118

> <CAS>
1634-04-4

$$$$

  CDK

 15 16  0  0  0  0  0  0  0  0999 V2000
    3.3219   -3.4516    0.0000 C   0  0  0  0  0  0  0  0  0  0  0  0
    1.9952   -3.4516    0.0000 C   0  0  0  0  0  0  0  0  0  0  0  0
    3.9903   -2.3044    0.0000 C   0  0  0  0  0  0  0  0  0  0  0  0
    1.3268   -2.3044    0.0000 C   0  0  0  0  0  0  0  0  0  0  0  0
    3.3219   -1.1472    0.0000 C   0  0  0  0  0  0  0  0  0  0  0  0
    5.3171   -2.3044    0.0000 N   0  0  0  0  0  0  0  0  0  0  0  0
    0.0000   -2.3044    0.0000 O   0  0  0  0  0  0  0  0  0  0  0  0
    1.9952   -1.1472    0.0000 C   0  0  0  0  0  0  0  0  0  0  0  0
    5.9855   -1.1472    0.0000 N   0  0  0  0  0  0  0  0  0  0  0  0
    7.3122   -1.1472    0.0000 C   0  0  0  0  0  0  0  0  0  0  0  0
    7.9806   -0.0000    0.0000 C   0  0  0  0  0  0  0  0  0  0  0  0
    7.9806   -2.3044    0.0000 C   0  0  0  0  0  0  0  0  0  0  0  0
    9.3074   -0.0000    0.0000 C   0  0  0  0  0  0  0  0  0  0  0  0
    9.3074   -2.3044    0.0000 C   0  0  0  0  0  0  0  0  0  0  0  0
    9.9758   -1.1472    0.0000 C   0  0  0  0  0  0  0  0  0  0  0  0
  1  2  2  0  0  0  0 
  1  3  1  0  0  0  0 
  2  4  1  0  0  0  0 
  5  3  2  0  0  0  0 
  3  6  1  0  0  0  0 
  4  7  1  0  0  0  0 
  4  8  2  0  0  0  0 
  8  5  1  0  0  0  0 
  6  9  2  0  0  0  0 
  9 10  1  0  0  0  0 
 10 11  2  0  0  0  0 
 10 12  1  0  0  0  0 
 11 13  1  0  0  0  0 
 14 12  2  0  0  0  0 
 13 15  2  0  0  0  0 
 15 14  1  0  0  0  0 
M  END
> <Name>
C.I. Solvent Yellow 7 (8CI)

> <Source>
DSSTox2DMolFile

> <Tox>
5.171

> <CAS>
1689-82-3

$$$$

  CDK

 11 11  0  0  0  0  0  0  0  0999 V2000
    3.3240   -3.4570    0.0000 C   0  0  0  0  0  0  0  0  0  0  0  0
    1.9944   -3.4570    0.0000 C   0  0  0  0  0  0  0  0  0  0  0  0
    3.9888   -2.3069    0.0000 C   0  0  0  0  0  0  0  0  0  0  0  0
    1.3296   -4.6071    0.0000 I   0  0  0  0  0  0  0  0  0  0  0  0
    1.3296   -2.3069    0.0000 C   0  0  0  0  0  0  0  0  0  0  0  0
    3.3240   -1.1501    0.0000 C   0  0  0  0  0  0  0  0  0  0  0  0
    5.3184   -2.3069    0.0000 C   0  0  0  0  0  0  0  0  0  0  0  0
    0.0000   -2.3069    0.0000 O   0  0  0  0  0  0  0  0  0  0  0  0
    1.9944   -1.1501    0.0000 C   0  0  0  0  0  0  0  0  0  0  0  0
    6.6480   -2.3069    0.0000 N   0  0  0  0  0  0  0  0  0  0  0  0
    1.3296   -0.0000    0.0000 I   0  0  0  0  0  0  0  0  0  0  0  0
  1  2  2  0  0  0  0 
  1  3  1  0  0  0  0 
  2  4  1  0  0  0  0 
  2  5  1  0  0  0  0 
  6  3  2  0  0  0  0 
  3  7  1  0  0  0  0 
  5  8  1  0  0  0  0 
  5  9  2  0  0  0  0 
  9  6  1  0  0  0  0 
  7 10  3  0  0  0  0 
  9 11  1  0  0  0  0 
M  END
> <Name>
Benzonitrile, 3,5-diiodo-4-hydroxy-

> <Source>
DSSTox2DMolFile

> <Tox>
4.737

> <CAS>
1689-83-4

$$$$

  CDK

 11 11  0  0  0  0  0  0  0  0999 V2000
    3.3240   -3.4570    0.0000 C   0  0  0  0  0  0  0  0  0  0  0  0
    1.9944   -3.4570    0.0000 C   0  0  0  0  0  0  0  0  0  0  0  0
    3.9888   -2.3069    0.0000 C   0  0  0  0  0  0  0  0  0  0  0  0
    1.3296   -4.6071    0.0000 Br  0  0  0  0  0  0  0  0  0  0  0  0
    1.3296   -2.3069    0.0000 C   0  0  0  0  0  0  0  0  0  0  0  0
    3.3240   -1.1501    0.0000 C   0  0  0  0  0  0  0  0  0  0  0  0
    5.3184   -2.3069    0.0000 C   0  0  0  0  0  0  0  0  0  0  0  0
    0.0000   -2.3069    0.0000 O   0  0  0  0  0  0  0  0  0  0  0  0
    1.9944   -1.1501    0.0000 C   0  0  0  0  0  0  0  0  0  0  0  0
    6.6480   -2.3069    0.0000 N   0  0  0  0  0  0  0  0  0  0  0  0
    1.3296   -0.0000    0.0000 Br  0  0  0  0  0  0  0  0  0  0  0  0
  1  2  2  0  0  0  0 
  1  3  1  0  0  0  0 
  2  4  1  0  0  0  0 
  2  5  1  0  0  0  0 
  6  3  2  0  0  0  0 
  3  7  1  0  0  0  0 
  5  8  1  0  0  0  0 
  5  9  2  0  0  0  0 
  9  6  1  0  0  0  0 
  7 10  3  0  0  0  0 
  9 11  1  0  0  0  0 
M  END
> <Name>
Benzonitrile, 3,5-dibromo-4-hydroxy-

> <Source>
DSSTox2DMolFile

> <Tox>
4.302

> <CAS>
1689-84-5

$$$$

  CDK

 13 13  0  0  0  0  0  0  0  0999 V2000
    1.9920   -0.0000    0.0000 Cl  0  0  0  0  0  0  0  0  0  0  0  0
    2.6560   -1.1545    0.0000 C   0  0  0  0  0  0  0  0  0  0  0  0
    3.9900   -1.1545    0.0000 C   0  0  0  0  0  0  0  0  0  0  0  0
    1.9920   -2.3031    0.0000 C   0  0  0  0  0  0  0  0  0  0  0  0
    4.6540   -2.3031    0.0000 C   0  0  0  0  0  0  0  0  0  0  0  0
    4.6540   -0.0000    0.0000 Cl  0  0  0  0  0  0  0  0  0  0  0  0
    2.6560   -3.4576    0.0000 C   0  0  0  0  0  0  0  0  0  0  0  0
    0.6640   -2.3031    0.0000 O   0  0  0  0  0  0  0  0  0  0  0  0
    3.9900   -3.4576    0.0000 C   0  0  0  0  0  0  0  0  0  0  0  0
    5.9820   -2.3031    0.0000 Cl  0  0  0  0  0  0  0  0  0  0  0  0
    1.9920   -4.6062    0.0000 Cl  0  0  0  0  0  0  0  0  0  0  0  0
    0.0000   -3.4576    0.0000 C   0  0  0  0  0  0  0  0  0  0  0  0
    4.6540   -4.6062    0.0000 Cl  0  0  0  0  0  0  0  0  0  0  0  0
  1  2  1  0  0  0  0 
  2  3  2  0  0  0  0 
  2  4  1  0  0  0  0 
  3  5  1  0  0  0  0 
  3  6  1  0  0  0  0 
  7  4  2  0  0  0  0 
  4  8  1  0  0  0  0 
  5  9  2  0  0  0  0 
  5 10  1  0  0  0  0 
  9  7  1  0  0  0  0 
  7 11  1  0  0  0  0 
  8 12  1  0  0  0  0 
  9 13  1  0  0  0  0 
M  END
> <Name>
Benzene, pentachloromethoxy- (9CI)

> <Source>
DSSTox2DMolFile

> <Tox>
5.635

> <CAS>
1825-21-4

$$$$

  CDK

 11 11  0  0  0  0  0  0  0  0999 V2000
    3.3240   -3.4570    0.0000 C   0  0  0  0  0  0  0  0  0  0  0  0
    1.9944   -3.4570    0.0000 C   0  0  0  0  0  0  0  0  0  0  0  0
    3.9888   -2.3069    0.0000 C   0  0  0  0  0  0  0  0  0  0  0  0
    1.3296   -4.6071    0.0000 Cl  0  0  0  0  0  0  0  0  0  0  0  0
    1.3296   -2.3069    0.0000 C   0  0  0  0  0  0  0  0  0  0  0  0
    3.3240   -1.1501    0.0000 C   0  0  0  0  0  0  0  0  0  0  0  0
    5.3184   -2.3069    0.0000 C   0  0  0  0  0  0  0  0  0  0  0  0
    0.0000   -2.3069    0.0000 O   0  0  0  0  0  0  0  0  0  0  0  0
    1.9944   -1.1501    0.0000 C   0  0  0  0  0  0  0  0  0  0  0  0
    6.6480   -2.3069    0.0000 N   0  0  0  0  0  0  0  0  0  0  0  0
    1.3296   -0.0000    0.0000 Cl  0  0  0  0  0  0  0  0  0  0  0  0
  1  2  2  0  0  0  0 
  1  3  1  0  0  0  0 
  2  4  1  0  0  0  0 
  2  5  1  0  0  0  0 
  6  3  2  0  0  0  0 
  3  7  1  0  0  0  0 
  5  8  1  0  0  0  0 
  5  9  2  0  0  0  0 
  9  6  1  0  0  0  0 
  7 10  3  0  0  0  0 
  9 11  1  0  0  0  0 
M  END
> <Name>
3,5-Dichloro-4-hydroxybenzonitrile

> <Source>
DSSTox2DMolFile

> <Tox>
3.889

> <CAS>
1891-95-8

$$$$

  CDK

 20 20  0  0  0  0  0  0  0  0999 V2000
    6.9082   -1.3397    0.0000 C   0  0  0  0  0  0  0  0  0  0  0  0
    6.9082   -0.0000    0.0000 O   0  0  0  0  0  0  0  0  0  0  0  0
    8.0703   -2.0014    0.0000 O   0  0  0  0  0  0  0  0  0  0  0  0
    5.7622   -2.0014    0.0000 C   0  0  0  0  0  0  0  0  0  0  0  0
    9.2324   -1.3397    0.0000 C   0  0  0  0  0  0  0  0  0  0  0  0
    4.6001   -1.3397    0.0000 O   0  0  0  0  0  0  0  0  0  0  0  0
   10.3784   -2.0014    0.0000 C   0  0  0  0  0  0  0  0  0  0  0  0
    3.4702   -2.0014    0.0000 C   0  0  0  0  0  0  0  0  0  0  0  0
   11.5405   -1.3397    0.0000 O   0  0  0  0  0  0  0  0  0  0  0  0
    3.4702   -3.3250    0.0000 C   0  0  0  0  0  0  0  0  0  0  0  0
    2.3081   -1.3397    0.0000 C   0  0  0  0  0  0  0  0  0  0  0  0
   12.6865   -2.0014    0.0000 C   0  0  0  0  0  0  0  0  0  0  0  0
    2.3081   -4.0029    0.0000 C   0  0  0  0  0  0  0  0  0  0  0  0
    4.6001   -4.0029    0.0000 Cl  0  0  0  0  0  0  0  0  0  0  0  0
    1.1621   -2.0014    0.0000 C   0  0  0  0  0  0  0  0  0  0  0  0
   13.8486   -1.3397    0.0000 C   0  0  0  0  0  0  0  0  0  0  0  0
    1.1621   -3.3250    0.0000 C   0  0  0  0  0  0  0  0  0  0  0  0
   14.9785   -2.0014    0.0000 C   0  0  0  0  0  0  0  0  0  0  0  0
    0.0000   -4.0029    0.0000 Cl  0  0  0  0  0  0  0  0  0  0  0  0
   16.1406   -1.3397    0.0000 C   0  0  0  0  0  0  0  0  0  0  0  0
  1  2  2  0  0  0  0 
  1  3  1  0  0  0  0 
  1  4  1  0  0  0  0 
  3  5  1  0  0  0  0 
  4  6  1  0  0  0  0 
  5  7  1  0  0  0  0 
  6  8  1  0  0  0  0 
  7  9  1  0  0  0  0 
  8 10  2  0  0  0  0 
  8 11  1  0  0  0  0 
  9 12  1  0  0  0  0 
 10 13  1  0  0  0  0 
 10 14  1  0  0  0  0 
 11 15  2  0  0  0  0 
 12 16  1  0  0  0  0 
 13 17  2  0  0  0  0 
 15 17  1  0  0  0  0 
 16 18  1  0  0  0  0 
 17 19  1  0  0  0  0 
 18 20  1  0  0  0  0 
M  END
> <Name>
Acetic acid, (2,4-dichlorophenoxy)-, 2-butoxyethyl ester (8CI,9CI)

> <Source>
DSSTox2DMolFile

> <Tox>
5.052

> <CAS>
1929-73-3

$$$$

  CDK

  7  6  0  0  0  0  0  0  0  0999 V2000
   -0.6561    0.0353   -0.1027 P   0  0  0  0  0  0  0  0  0  0  0  0
   -2.0409    0.1250   -0.5837 O   0  0  0  0  0  0  0  0  0  0  0  0
   -0.6262   -0.0891    1.5858 O   0  0  0  0  0  0  0  0  0  0  0  0
    0.4341    1.4720   -0.5359 C   0  0  0  0  0  0  0  0  0  0  0  0
    0.2889   -1.4874   -0.5932 C   0  0  0  0  0  0  0  0  0  0  0  0
    1.6582    1.5759    0.1291 O   0  0  0  0  0  0  0  0  0  0  0  0
    1.5572   -1.6165   -0.0136 O   0  0  0  0  0  0  0  0  0  0  0  0
  1  2  2  0  0  0  0 
  1  3  1  0  0  0  0 
  1  4  1  0  0  0  0 
  1  5  1  0  0  0  0 
  4  6  1  0  0  0  0 
  5  7  1  0  0  0  0 
M  END
> <Name>
Bis-(hydroxymethyl)-phosphinic acid

> <Source>
DougDB3DMolFile

> <Tox>
3.638

> <CAS>
2074-67-1

$$$$

  CDK

 12 12  0  0  0  0  0  0  0  0999 V2000
    2.8846   -1.9466    0.0000 N   0  0  0  0  0  0  0  0  0  0  0  0
    2.8846   -3.2893    0.0000 C   0  0  0  0  0  0  0  0  0  0  0  0
    1.8823   -1.1500    0.0000 C   0  0  0  0  0  0  0  0  0  0  0  0
    4.1245   -1.3684    0.0000 C   0  0  0  0  0  0  0  0  0  0  0  0
    1.8823   -4.1245    0.0000 C   0  0  0  0  0  0  0  0  0  0  0  0
    0.6039   -1.4198    0.0000 C   0  0  0  0  0  0  0  0  0  0  0  0
    4.1245   -0.0385    0.0000 O   0  0  0  0  0  0  0  0  0  0  0  0
    5.2744   -2.0108    0.0000 S   0  0  0  0  0  0  0  0  0  0  0  0
    0.6039   -3.8739    0.0000 C   0  0  0  0  0  0  0  0  0  0  0  0
    0.0000   -2.6468    0.0000 C   0  0  0  0  0  0  0  0  0  0  0  0
    6.4244   -1.3427    0.0000 C   0  0  0  0  0  0  0  0  0  0  0  0
    6.4244   -0.0000    0.0000 C   0  0  0  0  0  0  0  0  0  0  0  0
  1  2  1  0  0  0  0 
  1  3  1  0  0  0  0 
  1  4  1  0  0  0  0 
  2  5  1  0  0  0  0 
  6  3  1  0  0  0  0 
  4  7  2  0  0  0  0 
  4  8  1  0  0  0  0 
  5  9  1  0  0  0  0 
 10  6  1  0  0  0  0 
  8 11  1  0  0  0  0 
  9 10  1  0  0  0  0 
 11 12  1  0  0  0  0 
M  END
> <Name>
1H-Azepine-1-carbothioic acid, hexahydro-, S-ethyl ester

> <Source>
DSSTox2DMolFile

> <Tox>
3.841

> <CAS>
2212-67-1

$$$$

  CDK

 21 22  0  0  0  0  0  0  0  0999 V2000
    3.5025   -2.4172    0.0000 N   0  0  0  0  0  0  0  0  0  0  0  0
    2.7543   -1.3731    0.0000 C   0  0  0  0  0  0  0  0  0  0  0  0
    4.7851   -2.0144    0.0000 C   0  0  0  0  0  0  0  0  0  0  0  0
    3.5025   -3.7492    0.0000 C   0  0  0  0  0  0  0  0  0  0  0  0
    3.5190   -0.2795    0.0000 O   0  0  0  0  0  0  0  0  0  0  0  0
    1.4306   -1.3731    0.0000 O   0  0  0  0  0  0  0  0  0  0  0  0
    4.7851   -0.6989    0.0000 C   0  0  0  0  0  0  0  0  0  0  0  0
    5.9197   -2.6721    0.0000 C   0  0  0  0  0  0  0  0  0  0  0  0
    2.3268   -4.3905    0.0000 S   0  0  0  0  0  0  0  0  0  0  0  0
    5.9197   -0.0329    0.0000 C   0  0  0  0  0  0  0  0  0  0  0  0
    7.0872   -2.0144    0.0000 C   0  0  0  0  0  0  0  0  0  0  0  0
    2.3268   -5.7306    0.0000 P   0  0  0  0  0  0  0  0  0  0  0  0
    7.0872   -0.6989    0.0000 C   0  0  0  0  0  0  0  0  0  0  0  0
    3.6423   -5.7306    0.0000 S   0  0  0  0  0  0  0  0  0  0  0  0
    2.3268   -7.0708    0.0000 O   0  0  0  0  0  0  0  0  0  0  0  0
    0.9866   -5.7306    0.0000 O   0  0  0  0  0  0  0  0  0  0  0  0
    8.2219   -0.0000    0.0000 Cl  0  0  0  0  0  0  0  0  0  0  0  0
    1.1757   -7.7450    0.0000 C   0  0  0  0  0  0  0  0  0  0  0  0
    0.3124   -4.5796    0.0000 C   0  0  0  0  0  0  0  0  0  0  0  0
    0.0000   -7.0708    0.0000 C   0  0  0  0  0  0  0  0  0  0  0  0
    0.9866   -3.4285    0.0000 C   0  0  0  0  0  0  0  0  0  0  0  0
  1  2  1  0  0  0  0 
  1  3  1  0  0  0  0 
  1  4  1  0  0  0  0 
  2  5  1  0  0  0  0 
  2  6  2  0  0  0  0 
  3  7  1  0  0  0  0 
  3  8  2  0  0  0  0 
  4  9  1  0  0  0  0 
  5  7  1  0  0  0  0 
  7 10  2  0  0  0  0 
  8 11  1  0  0  0  0 
 12  9  1  0  0  0  0 
 10 13  1  0  0  0  0 
 13 11  2  0  0  0  0 
 12 14  2  0  0  0  0 
 12 15  1  0  0  0  0 
 12 16  1  0  0  0  0 
 13 17  1  0  0  0  0 
 15 18  1  0  0  0  0 
 16 19  1  0  0  0  0 
 18 20  1  0  0  0  0 
 19 21  1  0  0  0  0 
M  END
> <Name>
Phosphorodithioic acid, S-((6-chloro-2-oxo-3(2H)-benzoxazolyl)methyl) O,O-diethyl ester

> <Source>
DSSTox2DMolFile

> <Tox>
6.238

> <CAS>
2310-17-0

$$$$

  CDK

 19 21  0  0  0  0  0  0  0  0999 V2000
    3.9012   -4.3556    0.0000 C   0  0  0  0  0  0  0  0  0  0  0  0
    5.2251   -4.3556    0.0000 C   0  0  0  0  0  0  0  0  0  0  0  0
    3.4782   -3.0787    0.0000 C   0  0  0  0  0  0  0  0  0  0  0  0
    3.0082   -5.3427    0.0000 C   0  0  0  0  0  0  0  0  0  0  0  0
    5.6482   -3.0787    0.0000 C   0  0  0  0  0  0  0  0  0  0  0  0
    6.1339   -5.3427    0.0000 C   0  0  0  0  0  0  0  0  0  0  0  0
    4.5828   -2.3031    0.0000 C   0  0  0  0  0  0  0  0  0  0  0  0
    2.1856   -2.8202    0.0000 C   0  0  0  0  0  0  0  0  0  0  0  0
    1.6999   -5.0685    0.0000 C   0  0  0  0  0  0  0  0  0  0  0  0
    6.9564   -2.8202    0.0000 C   0  0  0  0  0  0  0  0  0  0  0  0
    7.4108   -5.0685    0.0000 C   0  0  0  0  0  0  0  0  0  0  0  0
    3.9012   -1.1516    0.0000 C   0  0  0  0  0  0  0  0  0  0  0  0
    5.2251   -1.1516    0.0000 O   0  0  0  0  0  0  0  0  0  0  0  0
    1.2926   -3.7916    0.0000 C   0  0  0  0  0  0  0  0  0  0  0  0
    7.8338   -3.7916    0.0000 C   0  0  0  0  0  0  0  0  0  0  0  0
    4.5828   -0.0000    0.0000 O   0  0  0  0  0  0  0  0  0  0  0  0
    2.5773   -1.1516    0.0000 O   0  0  0  0  0  0  0  0  0  0  0  0
    0.0000   -3.5330    0.0000 Cl  0  0  0  0  0  0  0  0  0  0  0  0
    1.9114   -0.0000    0.0000 C   0  0  0  0  0  0  0  0  0  0  0  0
  1  2  1  0  0  0  0 
  1  3  2  0  0  0  0 
  1  4  1  0  0  0  0 
  2  5  2  0  0  0  0 
  2  6  1  0  0  0  0 
  3  7  1  0  0  0  0 
  3  8  1  0  0  0  0 
  4  9  2  0  0  0  0 
  5  7  1  0  0  0  0 
  5 10  1  0  0  0  0 
  6 11  2  0  0  0  0 
  7 12  1  0  0  0  0 
  7 13  1  0  0  0  0 
  8 14  2  0  0  0  0 
  9 14  1  0  0  0  0 
 10 15  2  0  0  0  0 
 11 15  1  0  0  0  0 
 12 16  2  0  0  0  0 
 12 17  1  0  0  0  0 
 14 18  1  0  0  0  0 
 17 19  1  0  0  0  0 
M  END
> <Name>
9H-Fluorene-9-carboxylic acid, 2-chloro-9-hydroxy-, methyl ester

> <Source>
DSSTox2DMolFile

> <Tox>
5.277

> <CAS>
2536-31-4

$$$$

  CDK

 13 14  0  0  0  0  0  0  0  0999 V2000
    1.1539   -2.6602    0.0000 C   0  0  0  0  0  0  0  0  0  0  0  0
    0.0000   -1.9969    0.0000 C   0  0  0  0  0  0  0  0  0  0  0  0
    2.3009   -1.9969    0.0000 C   0  0  0  0  0  0  0  0  0  0  0  0
    0.0000   -0.6633    0.0000 C   0  0  0  0  0  0  0  0  0  0  0  0
    2.3009   -0.6633    0.0000 C   0  0  0  0  0  0  0  0  0  0  0  0
    3.4548   -2.6602    0.0000 C   0  0  0  0  0  0  0  0  0  0  0  0
    1.1539   -0.0000    0.0000 C   0  0  0  0  0  0  0  0  0  0  0  0
    4.6087   -1.9969    0.0000 N   0  0  0  0  0  0  0  0  0  0  0  0
    4.6087   -0.6633    0.0000 C   0  0  0  0  0  0  0  0  0  0  0  0
    5.7557   -2.6602    0.0000 C   0  0  0  0  0  0  0  0  0  0  0  0
    5.7557   -0.0000    0.0000 C   0  0  0  0  0  0  0  0  0  0  0  0
    6.9096   -1.9969    0.0000 C   0  0  0  0  0  0  0  0  0  0  0  0
    6.9096   -0.6633    0.0000 N   0  0  0  0  0  0  0  0  0  0  0  0
  1  2  2  0  0  0  0 
  1  3  1  0  0  0  0 
  2  4  1  0  0  0  0 
  5  3  2  0  0  0  0 
  3  6  1  0  0  0  0 
  4  7  2  0  0  0  0 
  7  5  1  0  0  0  0 
  6  8  1  0  0  0  0 
  8  9  1  0  0  0  0 
  8 10  1  0  0  0  0 
  9 11  1  0  0  0  0 
 12 10  1  0  0  0  0 
 11 13  1  0  0  0  0 
 13 12  1  0  0  0  0 
M  END
> <Name>
Piperazine, 1-(phenylmethyl)-

> <Source>
DSSTox2DMolFile

> <Tox>
3.570

> <CAS>
2759-28-6

$$$$

  CDK

 26 28  0  0  0  0  0  0  0  0999 V2000
    5.7579   -2.6532    0.0000 N   0  0  0  0  0  0  0  0  0  0  0  0
    6.9094   -1.9899    0.0000 C   0  0  0  0  0  0  0  0  0  0  0  0
    5.7579   -3.9890    0.0000 C   0  0  0  0  0  0  0  0  0  0  0  0
    6.9094   -0.6633    0.0000 C   0  0  0  0  0  0  0  0  0  0  0  0
    6.9094   -4.6523    0.0000 C   0  0  0  0  0  0  0  0  0  0  0  0
    4.6063   -4.6523    0.0000 C   0  0  0  0  0  0  0  0  0  0  0  0
    8.0610   -0.0000    0.0000 O   0  0  0  0  0  0  0  0  0  0  0  0
    6.9094   -5.9790    0.0000 C   0  0  0  0  0  0  0  0  0  0  0  0
    4.6063   -5.9790    0.0000 C   0  0  0  0  0  0  0  0  0  0  0  0
    3.4547   -3.9890    0.0000 C   0  0  0  0  0  0  0  0  0  0  0  0
    5.7579   -6.6423    0.0000 C   0  0  0  0  0  0  0  0  0  0  0  0
    3.4547   -6.6423    0.0000 C   0  0  0  0  0  0  0  0  0  0  0  0
    2.3031   -4.6523    0.0000 C   0  0  0  0  0  0  0  0  0  0  0  0
    3.4547   -2.6532    0.0000 O   0  0  0  0  0  0  0  0  0  0  0  0
    5.7579   -7.9781    0.0000 N   0  0  0  0  0  0  0  0  0  0  0  0
    3.4547   -7.9781    0.0000 O   0  0  0  0  0  0  0  0  0  0  0  0
    2.3031   -5.9790    0.0000 C   0  0  0  0  0  0  0  0  0  0  0  0
    1.1516   -3.9890    0.0000 C   0  0  0  0  0  0  0  0  0  0  0  0
    6.9094   -8.6414    0.0000 C   0  0  0  0  0  0  0  0  0  0  0  0
    1.1516   -6.6423    0.0000 C   0  0  0  0  0  0  0  0  0  0  0  0
    0.0000   -4.6523    0.0000 C   0  0  0  0  0  0  0  0  0  0  0  0
    1.1516   -2.6532    0.0000 O   0  0  0  0  0  0  0  0  0  0  0  0
    8.0610   -7.9781    0.0000 C   0  0  0  0  0  0  0  0  0  0  0  0
    1.1516   -7.9781    0.0000 O   0  0  0  0  0  0  0  0  0  0  0  0
    0.0000   -5.9790    0.0000 C   0  0  0  0  0  0  0  0  0  0  0  0
    9.2126   -8.6414    0.0000 O   0  0  0  0  0  0  0  0  0  0  0  0
  1  2  1  0  0  0  0 
  1  3  1  0  0  0  0 
  2  4  1  0  0  0  0 
  3  5  2  0  0  0  0 
  3  6  1  0  0  0  0 
  4  7  1  0  0  0  0 
  5  8  1  0  0  0  0 
  9  6  2  0  0  0  0 
 10  6  1  0  0  0  0 
  8 11  2  0  0  0  0 
 11  9  1  0  0  0  0 
  9 12  1  0  0  0  0 
 13 10  1  0  0  0  0 
 10 14  2  0  0  0  0 
 11 15  1  0  0  0  0 
 12 16  2  0  0  0  0 
 12 17  1  0  0  0  0 
 17 13  1  0  0  0  0 
 18 13  2  0  0  0  0 
 15 19  1  0  0  0  0 
 17 20  2  0  0  0  0 
 21 18  1  0  0  0  0 
 18 22  1  0  0  0  0 
 19 23  1  0  0  0  0 
 20 24  1  0  0  0  0 
 20 25  1  0  0  0  0 
 25 21  2  0  0  0  0 
 23 26  1  0  0  0  0 
M  END
> <Name>
Anthraquinone, 1,4-dihydroxy-5,8-bis((2-hydroxyethyl)amino)- (8CI)

> <Source>
DSSTox2DMolFile

> <Tox>
3.838

> <CAS>
3179-90-6

$$$$

  CDK

 16 15  0  0  0  0  0  0  0  0999 V2000
    5.9839   -0.0000    0.0000 C   0  0  0  0  0  0  0  0  0  0  0  0
    4.6515   -0.0000    0.0000 C   0  0  0  0  0  0  0  0  0  0  0  0
    3.9892   -1.1569    0.0000 O   0  0  0  0  0  0  0  0  0  0  0  0
    4.6515   -2.3058    0.0000 C   0  0  0  0  0  0  0  0  0  0  0  0
    5.9839   -2.3058    0.0000 O   0  0  0  0  0  0  0  0  0  0  0  0
    3.9892   -3.4547    0.0000 N   0  0  0  0  0  0  0  0  0  0  0  0
    4.6515   -4.6116    0.0000 C   0  0  0  0  0  0  0  0  0  0  0  0
    2.6568   -3.4547    0.0000 C   0  0  0  0  0  0  0  0  0  0  0  0
    3.9892   -5.7605    0.0000 O   0  0  0  0  0  0  0  0  0  0  0  0
    5.9839   -4.6116    0.0000 O   0  0  0  0  0  0  0  0  0  0  0  0
    1.9946   -2.3058    0.0000 O   0  0  0  0  0  0  0  0  0  0  0  0
    1.9946   -4.6116    0.0000 O   0  0  0  0  0  0  0  0  0  0  0  0
    6.6461   -5.7605    0.0000 C   0  0  0  0  0  0  0  0  0  0  0  0
    0.6622   -4.6116    0.0000 C   0  0  0  0  0  0  0  0  0  0  0  0
    7.9785   -5.7605    0.0000 C   0  0  0  0  0  0  0  0  0  0  0  0
    0.0000   -5.7605    0.0000 C   0  0  0  0  0  0  0  0  0  0  0  0
  1  2  1  0  0  0  0 
  2  3  1  0  0  0  0 
  3  4  1  0  0  0  0 
  4  5  2  0  0  0  0 
  4  6  1  0  0  0  0 
  6  7  1  0  0  0  0 
  6  8  1  0  0  0  0 
  7  9  2  0  0  0  0 
  7 10  1  0  0  0  0 
  8 11  2  0  0  0  0 
  8 12  1  0  0  0  0 
 10 13  1  0  0  0  0 
 12 14  1  0  0  0  0 
 13 15  1  0  0  0  0 
 14 16  1  0  0  0  0 
M  END
> <Name>
Nitridotricarboxylic acid, triethyl ester

> <Source>
DSSTox2DMolFile

> <Tox>
4.244

> <CAS>
3206-31-3

$$$$

  CDK

 14 13  0  0  0  0  0  0  0  0999 V2000
   -1.5275   -1.3835    0.0000 C   0  0  0  0  0  0  0  0  0  0  0  0
   -1.5488   -0.5298    0.0000 C   0  0  0  0  0  0  0  0  0  0  0  0
   -1.4311    0.3260    0.0000 C   0  0  0  0  0  0  0  0  0  0  0  0
   -1.0926    1.1208    0.0000 S   0  0  0  0  0  0  0  0  0  0  0  0
   -0.3945    1.6279    0.0000 C   0  0  0  0  0  0  0  0  0  0  0  0
    0.4688    1.7050    0.0000 S   0  0  0  0  0  0  0  0  0  0  0  0
    1.2406    1.3071    0.0000 P   0  0  0  0  0  0  0  0  0  0  0  0
    1.8647    1.8475    0.0000 S   0  0  0  0  0  0  0  0  0  0  0  0
    1.1640    0.4862    0.0000 O   0  0  0  0  0  0  0  0  0  0  0  0
    1.7968    0.6537    0.0000 O   0  0  0  0  0  0  0  0  0  0  0  0
    0.3792    0.3126    0.0000 C   0  0  0  0  0  0  0  0  0  0  0  0
    1.8829   -0.1924    0.0000 C   0  0  0  0  0  0  0  0  0  0  0  0
   -0.3269   -0.0639    0.0000 C   0  0  0  0  0  0  0  0  0  0  0  0
    1.6892   -1.0114    0.0000 C   0  0  0  0  0  0  0  0  0  0  0  0
  1  2  1  0  0  0  0 
  2  3  1  0  0  0  0 
  3  4  1  0  0  0  0 
  4  5  1  0  0  0  0 
  5  6  1  0  0  0  0 
  6  7  1  0  0  0  0 
  7  8  2  0  0  0  0 
  7  9  1  0  0  0  0 
  7 10  1  0  0  0  0 
  9 11  1  0  0  0  0 
 10 12  1  0  0  0  0 
 11 13  1  0  0  0  0 
 12 14  1  0  0  0  0 
M  END
> <Name>
Phosphorodithioic acid, O,O-diethyl S-((propylthio)methyl) ester

> <Source>
Smiles

> <Tox>
5.933

> <CAS>
3309-68-0

$$$$

  CDK

 20 22  0  0  0  0  0  0  0  0999 V2000
    1.3101    1.7117    0.5918 S   0  0  0  0  0  0  0  0  0  0  0  0
   -0.1098    0.6750    0.6535 C   0  0  0  0  0  0  0  0  0  0  0  0
    2.5549    0.6760   -0.1011 C   0  0  0  0  0  0  0  0  0  0  0  0
   -0.1102   -0.6745    0.6543 C   0  0  0  0  0  0  0  0  0  0  0  0
   -1.4344    1.3977    0.6858 C   0  0  0  0  0  0  0  0  0  0  0  0
    2.5541   -0.6777   -0.1017 C   0  0  0  0  0  0  0  0  0  0  0  0
    3.6210    1.4188   -0.6761 C   0  0  0  0  0  0  0  0  0  0  0  0
    1.3090   -1.7123    0.5921 S   0  0  0  0  0  0  0  0  0  0  0  0
   -1.4353   -1.3961    0.6885 C   0  0  0  0  0  0  0  0  0  0  0  0
   -2.5033    0.7011   -0.0809 C   0  0  0  0  0  0  0  0  0  0  0  0
   -1.6186    2.4250    1.3002 O   0  0  0  0  0  0  0  0  0  0  0  0
    3.6188   -1.4206   -0.6792 C   0  0  0  0  0  0  0  0  0  0  0  0
    4.4899    2.0280   -1.1448 N   0  0  0  0  0  0  0  0  0  0  0  0
   -2.5036   -0.7005   -0.0799 C   0  0  0  0  0  0  0  0  0  0  0  0
   -1.6202   -2.4215    1.3061 O   0  0  0  0  0  0  0  0  0  0  0  0
   -3.4918    1.3993   -0.7661 C   0  0  0  0  0  0  0  0  0  0  0  0
    4.4869   -2.0288   -1.1506 N   0  0  0  0  0  0  0  0  0  0  0  0
   -3.4919   -1.3995   -0.7645 C   0  0  0  0  0  0  0  0  0  0  0  0
   -4.4726    0.6942   -1.4626 C   0  0  0  0  0  0  0  0  0  0  0  0
   -4.4725   -0.6950   -1.4620 C   0  0  0  0  0  0  0  0  0  0  0  0
  1  2  1  0  0  0  0 
  1  3  1  0  0  0  0 
  2  4  2  0  0  0  0 
  2  5  1  0  0  0  0 
  6  3  2  0  0  0  0 
  3  7  1  0  0  0  0 
  4  8  1  0  0  0  0 
  4  9  1  0  0  0  0 
  5 10  1  0  0  0  0 
  5 11  2  0  0  0  0 
  8  6  1  0  0  0  0 
  6 12  1  0  0  0  0 
  7 13  3  0  0  0  0 
  9 14  1  0  0  0  0 
  9 15  2  0  0  0  0 
 14 10  1  0  0  0  0 
 16 10  2  0  0  0  0 
 12 17  3  0  0  0  0 
 14 18  2  0  0  0  0 
 19 16  1  0  0  0  0 
 18 20  1  0  0  0  0 
 20 19  2  0  0  0  0 
M  END
> <Name>
Naphtho(2,3-b)-1,4-dithiin-2,3-dicarbonitrile, 5,10-dihydro-5,10-dioxo-

> <Source>
DougDB3DMolFile

> <Tox>
6.254

> <CAS>
3347-22-6

$$$$

  CDK

 17 18  0  0  0  0  0  0  0  0999 V2000
    4.6122   -1.3283    0.0000 O   0  0  0  0  0  0  0  0  0  0  0  0
    3.4591   -1.9648    0.0000 C   0  0  0  0  0  0  0  0  0  0  0  0
    5.7468   -1.9648    0.0000 C   0  0  0  0  0  0  0  0  0  0  0  0
    2.3061   -1.3283    0.0000 C   0  0  0  0  0  0  0  0  0  0  0  0
    3.4591   -3.2931    0.0000 C   0  0  0  0  0  0  0  0  0  0  0  0
    6.9183   -1.3283    0.0000 C   0  0  0  0  0  0  0  0  0  0  0  0
    5.7468   -3.2931    0.0000 C   0  0  0  0  0  0  0  0  0  0  0  0
    1.1530   -1.9648    0.0000 C   0  0  0  0  0  0  0  0  0  0  0  0
    2.3061   -0.0000    0.0000 Cl  0  0  0  0  0  0  0  0  0  0  0  0
    2.3061   -3.9849    0.0000 C   0  0  0  0  0  0  0  0  0  0  0  0
    8.0529   -1.9648    0.0000 C   0  0  0  0  0  0  0  0  0  0  0  0
    6.9183   -0.0000    0.0000 O   0  0  0  0  0  0  0  0  0  0  0  0
    6.9183   -3.9849    0.0000 C   0  0  0  0  0  0  0  0  0  0  0  0
    1.1530   -3.2931    0.0000 C   0  0  0  0  0  0  0  0  0  0  0  0
    8.0529   -3.2931    0.0000 C   0  0  0  0  0  0  0  0  0  0  0  0
    0.0000   -3.9849    0.0000 Cl  0  0  0  0  0  0  0  0  0  0  0  0
    9.2244   -3.9849    0.0000 Cl  0  0  0  0  0  0  0  0  0  0  0  0
  1  2  1  0  0  0  0 
  1  3  1  0  0  0  0 
  2  4  1  0  0  0  0 
  2  5  2  0  0  0  0 
  3  6  2  0  0  0  0 
  3  7  1  0  0  0  0 
  4  8  2  0  0  0  0 
  4  9  1  0  0  0  0 
  5 10  1  0  0  0  0 
  6 11  1  0  0  0  0 
  6 12  1  0  0  0  0 
  7 13  2  0  0  0  0 
  8 14  1  0  0  0  0 
 14 10  2  0  0  0  0 
 11 15  2  0  0  0  0 
 15 13  1  0  0  0  0 
 14 16  1  0  0  0  0 
 15 17  1  0  0  0  0 
M  END
> <Name>
Ether, 2'-hydroxy-2,4,4'-trichlorodiphenyl

> <Source>
DSSTox2DMolFile

> <Tox>
5.985

> <CAS>
3380-34-5

$$$$

  CDK

 13 14  0  0  0  0  0  0  0  0999 V2000
    0.0008    1.0315    0.2434 C   0  0  0  0  0  0  0  0  0  0  0  0
   -1.1304    0.2281   -0.5045 C   0  0  0  0  0  0  0  0  0  0  0  0
    1.1306    0.2265   -0.5045 C   0  0  0  0  0  0  0  0  0  0  0  0
    0.0020    2.7396   -0.0979 Cl  0  0  0  0  0  0  0  0  0  0  0  0
    0.0007    0.8348    1.9719 Cl  0  0  0  0  0  0  0  0  0  0  0  0
   -0.6798   -1.1903   -0.1573 C   0  0  0  0  0  0  0  0  0  0  0  0
   -0.6731    0.4580   -1.9434 C   0  0  0  0  0  0  0  0  0  0  0  0
   -2.7593    0.6097   -0.1486 Cl  0  0  0  0  0  0  0  0  0  0  0  0
    0.6780   -1.1912   -0.1572 C   0  0  0  0  0  0  0  0  0  0  0  0
    0.6735    0.4572   -1.9434 C   0  0  0  0  0  0  0  0  0  0  0  0
    2.7601    0.6058   -0.1489 Cl  0  0  0  0  0  0  0  0  0  0  0  0
   -1.7222   -2.4139    0.1317 Cl  0  0  0  0  0  0  0  0  0  0  0  0
    1.7187   -2.4162    0.1319 Cl  0  0  0  0  0  0  0  0  0  0  0  0
  1  2  1  0  0  0  0 
  1  3  1  0  0  0  0 
  1  4  1  0  0  0  0 
  1  5  1  0  0  0  0 
  2  6  1  0  0  0  0 
  2  7  1  0  0  0  0 
  2  8  1  0  0  0  0 
  3  9  1  0  0  0  0 
  3 10  1  0  0  0  0 
  3 11  1  0  0  0  0 
  6 12  1  0  0  0  0 
  6  9  2  0  0  0  0 
  7 10  2  0  0  0  0 
  9 13  1  0  0  0  0 
M  END
> <Name>
2,5-Norbornadiene, 1,2,3,4,7,7-hexachloro- (8CI)

> <Source>
DougDB3DMolFile

> <Tox>
6.201

> <CAS>
3389-71-7

$$$$

  CDK

 11 11  0  0  0  0  0  0  0  0999 V2000
    0.0000   -2.3039    0.0000 N   0  0  0  0  0  0  0  0  0  0  0  0
    1.3317   -2.3039    0.0000 C   0  0  0  0  0  0  0  0  0  0  0  0
    1.9952   -1.1519    0.0000 C   0  0  0  0  0  0  0  0  0  0  0  0
    1.9952   -3.4558    0.0000 C   0  0  0  0  0  0  0  0  0  0  0  0
    1.3317   -0.0000    0.0000 Cl  0  0  0  0  0  0  0  0  0  0  0  0
    3.3268   -1.1519    0.0000 C   0  0  0  0  0  0  0  0  0  0  0  0
    3.3268   -3.4558    0.0000 C   0  0  0  0  0  0  0  0  0  0  0  0
    1.3317   -4.6078    0.0000 Cl  0  0  0  0  0  0  0  0  0  0  0  0
    3.9904   -0.0000    0.0000 Cl  0  0  0  0  0  0  0  0  0  0  0  0
    3.9904   -2.3039    0.0000 C   0  0  0  0  0  0  0  0  0  0  0  0
    3.9904   -4.6078    0.0000 Cl  0  0  0  0  0  0  0  0  0  0  0  0
  1  2  1  0  0  0  0 
  2  3  2  0  0  0  0 
  2  4  1  0  0  0  0 
  3  5  1  0  0  0  0 
  3  6  1  0  0  0  0 
  7  4  2  0  0  0  0 
  4  8  1  0  0  0  0 
  6  9  1  0  0  0  0 
  6 10  2  0  0  0  0 
 10  7  1  0  0  0  0 
  7 11  1  0  0  0  0 
M  END
> <Name>
Benzenamine, 2,3,5,6-tetrachloro- (9CI)

> <Source>
DSSTox2DMolFile

> <Tox>
5.930

> <CAS>
3481-20-7

$$$$

  CDK

 17 16  0  0  0  0  0  0  0  0999 V2000
    3.3345   -1.3113    0.0000 P   0  0  0  0  0  0  0  0  0  0  0  0
    4.6552   -1.3113    0.0000 O   0  0  0  0  0  0  0  0  0  0  0  0
    3.3345   -0.0000    0.0000 S   0  0  0  0  0  0  0  0  0  0  0  0
    2.0045   -1.3113    0.0000 O   0  0  0  0  0  0  0  0  0  0  0  0
    3.3345   -2.6788    0.0000 O   0  0  0  0  0  0  0  0  0  0  0  0
    5.9759   -1.3207    0.0000 P   0  0  0  0  0  0  0  0  0  0  0  0
    1.3113   -2.4634    0.0000 C   0  0  0  0  0  0  0  0  0  0  0  0
    4.4679   -3.3532    0.0000 C   0  0  0  0  0  0  0  0  0  0  0  0
    5.9665   -0.0000    0.0000 S   0  0  0  0  0  0  0  0  0  0  0  0
    7.3434   -1.3301    0.0000 O   0  0  0  0  0  0  0  0  0  0  0  0
    5.9759   -2.6788    0.0000 O   0  0  0  0  0  0  0  0  0  0  0  0
    0.0000   -2.4634    0.0000 C   0  0  0  0  0  0  0  0  0  0  0  0
    4.4679   -4.6552    0.0000 C   0  0  0  0  0  0  0  0  0  0  0  0
    8.0365   -0.2248    0.0000 C   0  0  0  0  0  0  0  0  0  0  0  0
    7.1467   -3.3720    0.0000 C   0  0  0  0  0  0  0  0  0  0  0  0
    9.3666   -0.2248    0.0000 C   0  0  0  0  0  0  0  0  0  0  0  0
    7.1467   -4.6833    0.0000 C   0  0  0  0  0  0  0  0  0  0  0  0
  1  2  1  0  0  0  0 
  1  3  2  0  0  0  0 
  1  4  1  0  0  0  0 
  1  5  1  0  0  0  0 
  6  2  1  0  0  0  0 
  4  7  1  0  0  0  0 
  5  8  1  0  0  0  0 
  6  9  2  0  0  0  0 
  6 10  1  0  0  0  0 
  6 11  1  0  0  0  0 
  7 12  1  0  0  0  0 
  8 13  1  0  0  0  0 
 10 14  1  0  0  0  0 
 11 15  1  0  0  0  0 
 14 16  1  0  0  0  0 
 15 17  1  0  0  0  0 
M  END
> <Name>
Thiodiphosphoric acid (((HO)2P(S))2O), tetraethyl ester (9CI)

> <Source>
DSSTox2DMolFile

> <Tox>
6.258

> <CAS>
3689-24-5

$$$$

  CDK

  8  8  0  0  0  0  0  0  0  0999 V2000
    1.9950   -2.3036    0.0000 N   0  0  0  0  0  0  0  0  0  0  0  0
    1.3300   -1.1545    0.0000 C   0  0  0  0  0  0  0  0  0  0  0  0
    3.3250   -2.3036    0.0000 C   0  0  0  0  0  0  0  0  0  0  0  0
    0.0000   -1.1545    0.0000 O   0  0  0  0  0  0  0  0  0  0  0  0
    1.9950   -0.0000    0.0000 C   0  0  0  0  0  0  0  0  0  0  0  0
    3.9900   -1.1545    0.0000 C   0  0  0  0  0  0  0  0  0  0  0  0
    3.3250   -0.0000    0.0000 C   0  0  0  0  0  0  0  0  0  0  0  0
    5.3201   -1.1545    0.0000 Cl  0  0  0  0  0  0  0  0  0  0  0  0
  1  2  2  0  0  0  0 
  1  3  1  0  0  0  0 
  2  4  1  0  0  0  0 
  2  5  1  0  0  0  0 
  6  3  2  0  0  0  0 
  5  7  2  0  0  0  0 
  7  6  1  0  0  0  0 
  6  8  1  0  0  0  0 
M  END
> <Name>
5-Chloropyridin-2-ol

> <Source>
DSSTox2DMolFile

> <Tox>
2.056

> <CAS>
4214-79-3

$$$$

  CDK

  9  8  0  0  0  0  0  0  0  0999 V2000
    0.0000   -1.9937    0.0000 C   0  0  0  0  0  0  0  0  0  0  0  0
    1.1524   -1.3311    0.0000 C   0  0  0  0  0  0  0  0  0  0  0  0
    1.1524   -0.0000    0.0000 C   0  0  0  0  0  0  0  0  0  0  0  0
    2.3049   -1.9937    0.0000 C   0  0  0  0  0  0  0  0  0  0  0  0
    2.3049   -3.3248    0.0000 O   0  0  0  0  0  0  0  0  0  0  0  0
    3.4573   -1.3311    0.0000 O   0  0  0  0  0  0  0  0  0  0  0  0
    4.6097   -1.9937    0.0000 C   0  0  0  0  0  0  0  0  0  0  0  0
    5.7622   -1.3311    0.0000 C   0  0  0  0  0  0  0  0  0  0  0  0
    4.6097   -3.3248    0.0000 C   0  0  0  0  0  0  0  0  0  0  0  0
  1  2  2  0  0  0  0 
  2  3  1  0  0  0  0 
  2  4  1  0  0  0  0 
  4  5  2  0  0  0  0 
  4  6  1  0  0  0  0 
  6  7  1  0  0  0  0 
  7  8  1  0  0  0  0 
  7  9  1  0  0  0  0 
M  END
> <Name>
2-Propenoic acid, 2-methyl-, 1-methylethyl ester

> <Source>
DSSTox2DMolFile

> <Tox>
3.528

> <CAS>
4655-34-9

$$$$

  CDK

  7  6  0  0  0  0  0  0  0  0999 V2000
    0.0000   -1.3315    0.0000 C   0  0  0  0  0  0  0  0  0  0  0  0
    1.1518   -1.9950    0.0000 C   0  0  0  0  0  0  0  0  0  0  0  0
    2.3037   -1.3315    0.0000 C   0  0  0  0  0  0  0  0  0  0  0  0
    2.3037   -0.0000    0.0000 O   0  0  0  0  0  0  0  0  0  0  0  0
    3.4555   -1.9950    0.0000 C   0  0  0  0  0  0  0  0  0  0  0  0
    4.6073   -1.3315    0.0000 C   0  0  0  0  0  0  0  0  0  0  0  0
    4.6073   -0.0000    0.0000 C   0  0  0  0  0  0  0  0  0  0  0  0
  1  2  2  0  0  0  0 
  2  3  1  0  0  0  0 
  3  4  1  0  0  0  0 
  3  5  1  0  0  0  0 
  5  6  1  0  0  0  0 
  6  7  1  0  0  0  0 
M  END
> <Name>
1-Hexen-3-ol

> <Source>
DSSTox2DMolFile

> <Tox>
3.518

> <CAS>
4798-44-1

$$$$

  CDK

 14 14  0  0  0  0  0  0  0  0999 V2000
   -1.2285    1.2580    0.0069 C   0  0  0  0  0  0  0  0  0  0  0  0
   -1.2102   -0.1620   -0.0255 C   0  0  0  0  0  0  0  0  0  0  0  0
   -0.0005    1.9540    0.0949 C   0  0  0  0  0  0  0  0  0  0  0  0
   -2.4064    1.9800   -0.1389 N   0  0  0  0  0  0  0  0  0  0  0  0
    0.0239   -0.8263   -0.0270 C   0  0  0  0  0  0  0  0  0  0  0  0
   -2.4626   -0.9595   -0.0325 N   0  0  0  0  0  0  0  0  0  0  0  0
    1.2126    1.2911    0.0902 C   0  0  0  0  0  0  0  0  0  0  0  0
    1.2223   -0.1236    0.0110 C   0  0  0  0  0  0  0  0  0  0  0  0
   -3.5288   -0.3781    0.1305 O   0  0  0  0  0  0  0  0  0  0  0  0
   -2.4274   -2.1596   -0.1881 O   0  0  0  0  0  0  0  0  0  0  0  0
    2.4609    2.0931    0.1800 C   0  0  0  0  0  0  0  0  0  0  0  0
    2.4977   -0.9107   -0.0239 N   0  0  0  0  0  0  0  0  0  0  0  0
    3.4066   -0.5540   -0.7452 O   0  0  0  0  0  0  0  0  0  0  0  0
    2.5871   -1.9050    0.6670 O   0  0  0  0  0  0  0  0  0  0  0  0
  1  2  1  0  0  0  0 
  1  3  2  0  0  0  0 
  1  4  1  0  0  0  0 
  2  5  2  0  0  0  0 
  2  6  1  0  0  0  0 
  7  3  1  0  0  0  0 
  5  8  1  0  0  0  0 
  6  9  2  0  0  0  0 
  6 10  1  0  0  0  0 
  8  7  2  0  0  0  0 
  7 11  1  0  0  0  0 
  8 12  1  0  0  0  0 
 12 13  2  0  0  0  0 
 12 14  1  0  0  0  0 
M  CHG  1   6   1
M  CHG  1  10  -1
M  CHG  1  12   1
M  CHG  1  14  -1
M  END
> <Name>
Benzenamine, 4,6-dinitro-3-methyl- (9CI)

> <Source>
DougDB3DMolFile

> <Tox>
4.915

> <CAS>
5267-27-6

$$$$

  CDK

 17 17  0  0  0  0  0  0  0  0999 V2000
    0.0000   -1.3305    0.0000 C   0  0  0  0  0  0  0  0  0  0  0  0
    1.1531   -1.9997    0.0000 O   0  0  0  0  0  0  0  0  0  0  0  0
    2.3061   -1.3305    0.0000 C   0  0  0  0  0  0  0  0  0  0  0  0
    2.3061   -0.0000    0.0000 O   0  0  0  0  0  0  0  0  0  0  0  0
    3.4592   -1.9997    0.0000 C   0  0  0  0  0  0  0  0  0  0  0  0
    4.6042   -1.3305    0.0000 C   0  0  0  0  0  0  0  0  0  0  0  0
    3.4592   -3.3302    0.0000 C   0  0  0  0  0  0  0  0  0  0  0  0
    5.7573   -1.9997    0.0000 C   0  0  0  0  0  0  0  0  0  0  0  0
    4.6042   -3.9914    0.0000 C   0  0  0  0  0  0  0  0  0  0  0  0
    2.3061   -3.9914    0.0000 N   0  0  0  0  0  0  0  0  0  0  0  0
    5.7573   -3.3302    0.0000 C   0  0  0  0  0  0  0  0  0  0  0  0
    1.1531   -3.3302    0.0000 O   0  0  0  0  0  0  0  0  0  0  0  0
    2.3061   -5.3218    0.0000 O   0  0  0  0  0  0  0  0  0  0  0  0
    6.9103   -3.9914    0.0000 C   0  0  0  0  0  0  0  0  0  0  0  0
    6.9103   -5.3218    0.0000 O   0  0  0  0  0  0  0  0  0  0  0  0
    8.0634   -3.3302    0.0000 O   0  0  0  0  0  0  0  0  0  0  0  0
    8.0634   -1.9997    0.0000 C   0  0  0  0  0  0  0  0  0  0  0  0
  1  2  1  0  0  0  0 
  2  3  1  0  0  0  0 
  3  4  2  0  0  0  0 
  3  5  1  0  0  0  0 
  5  6  2  0  0  0  0 
  5  7  1  0  0  0  0 
  6  8  1  0  0  0  0 
  9  7  2  0  0  0  0 
  7 10  1  0  0  0  0 
  8 11  2  0  0  0  0 
 11  9  1  0  0  0  0 
 10 12  1  0  0  0  0 
 10 13  2  0  0  0  0 
 11 14  1  0  0  0  0 
 14 15  2  0  0  0  0 
 14 16  1  0  0  0  0 
 16 17  1  0  0  0  0 
M  CHG  1  10   1
M  CHG  1  12  -1
M  END
> <Name>
1,4-Benzenedicarboxylic acid, 2-nitro-, dimethyl ester

> <Source>
DSSTox2DMolFile

> <Tox>
4.564

> <CAS>
5292-45-5

$$$$

  CDK

 16 16  0  0  0  0  0  0  0  0999 V2000
    3.4455   -1.9889    0.0000 C   0  0  0  0  0  0  0  0  0  0  0  0
    2.3110   -2.6612    0.0000 N   0  0  0  0  0  0  0  0  0  0  0  0
    4.6010   -2.6612    0.0000 O   0  0  0  0  0  0  0  0  0  0  0  0
    3.4455   -0.6583    0.0000 C   0  0  0  0  0  0  0  0  0  0  0  0
    1.1555   -1.9889    0.0000 C   0  0  0  0  0  0  0  0  0  0  0  0
    4.6010   -3.9917    0.0000 P   0  0  0  0  0  0  0  0  0  0  0  0
    2.3110   -0.0000    0.0000 C   0  0  0  0  0  0  0  0  0  0  0  0
    4.6010   -0.0000    0.0000 Cl  0  0  0  0  0  0  0  0  0  0  0  0
    0.0000   -2.6612    0.0000 Cl  0  0  0  0  0  0  0  0  0  0  0  0
    1.1555   -0.6583    0.0000 C   0  0  0  0  0  0  0  0  0  0  0  0
    3.2704   -3.9917    0.0000 S   0  0  0  0  0  0  0  0  0  0  0  0
    5.9316   -3.9917    0.0000 O   0  0  0  0  0  0  0  0  0  0  0  0
    4.6010   -5.3223    0.0000 O   0  0  0  0  0  0  0  0  0  0  0  0
    0.0000   -0.0000    0.0000 Cl  0  0  0  0  0  0  0  0  0  0  0  0
    7.0030   -3.1934    0.0000 C   0  0  0  0  0  0  0  0  0  0  0  0
    5.7565   -5.9806    0.0000 C   0  0  0  0  0  0  0  0  0  0  0  0
  1  2  2  0  0  0  0 
  1  3  1  0  0  0  0 
  1  4  1  0  0  0  0 
  2  5  1  0  0  0  0 
  6  3  1  0  0  0  0 
  4  7  2  0  0  0  0 
  4  8  1  0  0  0  0 
  5  9  1  0  0  0  0 
  5 10  2  0  0  0  0 
  6 11  2  0  0  0  0 
  6 12  1  0  0  0  0 
  6 13  1  0  0  0  0 
  7 10  1  0  0  0  0 
 10 14  1  0  0  0  0 
 12 15  1  0  0  0  0 
 13 16  1  0  0  0  0 
M  END
> <Name>
Phosphorothioic acid, O,O-dimethyl O-(3,5,6-trichloro-2-pyridinyl) ester

> <Source>
DSSTox2DMolFile

> <Tox>
5.677

> <CAS>
5598-13-0

$$$$

  CDK

 12 11  0  0  0  0  0  0  0  0999 V2000
   12.6993   -0.0000    0.0000 C   0  0  0  0  0  0  0  0  0  0  0  0
   11.5436   -0.6604    0.0000 C   0  0  0  0  0  0  0  0  0  0  0  0
   10.3880   -0.0000    0.0000 C   0  0  0  0  0  0  0  0  0  0  0  0
    9.2324   -0.6604    0.0000 C   0  0  0  0  0  0  0  0  0  0  0  0
    8.0767   -0.0000    0.0000 C   0  0  0  0  0  0  0  0  0  0  0  0
    6.9211   -0.6604    0.0000 C   0  0  0  0  0  0  0  0  0  0  0  0
    5.7782   -0.0000    0.0000 C   0  0  0  0  0  0  0  0  0  0  0  0
    4.6225   -0.6604    0.0000 C   0  0  0  0  0  0  0  0  0  0  0  0
    3.4669   -0.0000    0.0000 C   0  0  0  0  0  0  0  0  0  0  0  0
    2.3113   -0.6604    0.0000 C   0  0  0  0  0  0  0  0  0  0  0  0
    1.1556   -0.0000    0.0000 C   0  0  0  0  0  0  0  0  0  0  0  0
    0.0000   -0.6604    0.0000 N   0  0  0  0  0  0  0  0  0  0  0  0
  1  2  1  0  0  0  0 
  2  3  1  0  0  0  0 
  3  4  1  0  0  0  0 
  4  5  1  0  0  0  0 
  5  6  1  0  0  0  0 
  6  7  1  0  0  0  0 
  7  8  1  0  0  0  0 
  8  9  1  0  0  0  0 
  9 10  1  0  0  0  0 
 10 11  1  0  0  0  0 
 11 12  1  0  0  0  0 
M  END
> <Name>
1-Undecanamine

> <Source>
DSSTox2DMolFile

> <Tox>
5.912

> <CAS>
7307-55-3

$$$$

  CDK

  8  7  0  0  0  0  0  0  0  0999 V2000
    0.0000   -1.1509    0.0000 C   0  0  0  0  0  0  0  0  0  0  0  0
    1.3305   -1.1509    0.0000 C   0  0  0  0  0  0  0  0  0  0  0  0
    2.6610   -1.1509    0.0000 C   0  0  0  0  0  0  0  0  0  0  0  0
    3.3263   -0.0000    0.0000 O   0  0  0  0  0  0  0  0  0  0  0  0
    3.3263   -2.3018    0.0000 C   0  0  0  0  0  0  0  0  0  0  0  0
    4.6568   -2.3018    0.0000 C   0  0  0  0  0  0  0  0  0  0  0  0
    5.3220   -1.1509    0.0000 C   0  0  0  0  0  0  0  0  0  0  0  0
    6.6525   -1.1509    0.0000 C   0  0  0  0  0  0  0  0  0  0  0  0
  1  2  3  0  0  0  0 
  2  3  1  0  0  0  0 
  3  4  1  0  0  0  0 
  3  5  1  0  0  0  0 
  5  6  1  0  0  0  0 
  6  7  1  0  0  0  0 
  7  8  1  0  0  0  0 
M  END
> <Name>
1-Heptyn-3-ol

> <Source>
DSSTox2DMolFile

> <Tox>
4.804

> <CAS>
7383-19-9

$$$$

  CDK

 21 21  0  0  0  0  0  0  0  0999 V2000
    0.3063   -2.0444   -0.2777 C   0  0  0  0  0  0  0  0  0  0  0  0
   -0.6574   -2.2209    0.8288 C   0  0  0  0  0  0  0  0  0  0  0  0
    0.3743   -2.7130   -1.2927 O   0  0  0  0  0  0  0  0  0  0  0  0
    1.2148   -1.0526   -0.0503 O   0  0  0  0  0  0  0  0  0  0  0  0
   -1.5355   -1.3005    1.2795 C   0  0  0  0  0  0  0  0  0  0  0  0
    2.2288   -0.7783   -1.0337 C   0  0  0  0  0  0  0  0  0  0  0  0
   -2.4546   -1.6041    2.4239 C   0  0  0  0  0  0  0  0  0  0  0  0
   -1.5302   -0.0395    0.7814 O   0  0  0  0  0  0  0  0  0  0  0  0
    1.6743    0.0683   -2.1763 C   0  0  0  0  0  0  0  0  0  0  0  0
    3.3141   -0.0308   -0.2937 C   0  0  0  0  0  0  0  0  0  0  0  0
   -2.8769    0.8617    0.2212 P   0  0  0  0  0  0  0  0  0  0  0  0
    4.6205   -0.5211   -0.3160 C   0  0  0  0  0  0  0  0  0  0  0  0
    3.0321    1.1464    0.4009 C   0  0  0  0  0  0  0  0  0  0  0  0
   -3.5037    1.6855    1.2253 O   0  0  0  0  0  0  0  0  0  0  0  0
   -3.8222   -0.3267   -0.5090 O   0  0  0  0  0  0  0  0  0  0  0  0
   -2.1924    1.6484   -1.1020 O   0  0  0  0  0  0  0  0  0  0  0  0
    5.6341    0.1630    0.3457 C   0  0  0  0  0  0  0  0  0  0  0  0
    4.0476    1.8244    1.0661 C   0  0  0  0  0  0  0  0  0  0  0  0
   -4.8510    0.0674   -1.3595 C   0  0  0  0  0  0  0  0  0  0  0  0
   -1.0531    2.4276   -0.9195 C   0  0  0  0  0  0  0  0  0  0  0  0
    5.3492    1.3351    1.0380 C   0  0  0  0  0  0  0  0  0  0  0  0
  1  2  1  0  0  0  0 
  1  3  2  0  0  0  0 
  1  4  1  0  0  0  0 
  2  5  2  0  0  0  0 
  4  6  1  0  0  0  0 
  5  7  1  0  0  0  0 
  5  8  1  0  0  0  0 
  6  9  1  0  0  0  0 
  6 10  1  0  0  0  0 
  8 11  1  0  0  0  0 
 10 12  1  0  0  0  0 
 10 13  2  0  0  0  0 
 11 14  2  0  0  0  0 
 11 15  1  0  0  0  0 
 11 16  1  0  0  0  0 
 12 17  2  0  0  0  0 
 18 13  1  0  0  0  0 
 15 19  1  0  0  0  0 
 16 20  1  0  0  0  0 
 17 21  1  0  0  0  0 
 21 18  2  0  0  0  0 
M  END
> <Name>
2-Butenoic acid, 3-((dimethoxyphosphinyl)oxy)-, 1-phenylethyl ester, (E)- (9CI)

> <Source>
DougDB3DMolFile

> <Tox>
4.422

> <CAS>
7700-17-6

$$$$

  CDK

 25 27  0  0  0  0  0  0  0  0999 V2000
   15.7133   -1.3356    0.0000 C   0  0  0  0  0  0  0  0  0  0  0  0
   14.5662   -1.9956    0.0000 C   0  0  0  0  0  0  0  0  0  0  0  0
   14.5662   -3.3312    0.0000 C   0  0  0  0  0  0  0  0  0  0  0  0
   13.4034   -1.3356    0.0000 C   0  0  0  0  0  0  0  0  0  0  0  0
   12.2564   -1.9956    0.0000 C   0  0  0  0  0  0  0  0  0  0  0  0
   11.5964   -3.1427    0.0000 C   0  0  0  0  0  0  0  0  0  0  0  0
   10.9207   -1.9956    0.0000 C   0  0  0  0  0  0  0  0  0  0  0  0
   12.6178   -4.0069    0.0000 C   0  0  0  0  0  0  0  0  0  0  0  0
   10.5750   -4.0069    0.0000 C   0  0  0  0  0  0  0  0  0  0  0  0
    9.7737   -1.3356    0.0000 C   0  0  0  0  0  0  0  0  0  0  0  0
    9.7737   -0.0000    0.0000 O   0  0  0  0  0  0  0  0  0  0  0  0
    8.6266   -1.9956    0.0000 O   0  0  0  0  0  0  0  0  0  0  0  0
    7.4638   -1.3356    0.0000 C   0  0  0  0  0  0  0  0  0  0  0  0
    6.3167   -1.9956    0.0000 C   0  0  0  0  0  0  0  0  0  0  0  0
    6.1753   -3.3155    0.0000 C   0  0  0  0  0  0  0  0  0  0  0  0
    5.1068   -1.4613    0.0000 C   0  0  0  0  0  0  0  0  0  0  0  0
    4.8711   -3.5983    0.0000 O   0  0  0  0  0  0  0  0  0  0  0  0
    4.2112   -2.4356    0.0000 C   0  0  0  0  0  0  0  0  0  0  0  0
    2.8912   -2.3099    0.0000 C   0  0  0  0  0  0  0  0  0  0  0  0
    2.1056   -3.3784    0.0000 C   0  0  0  0  0  0  0  0  0  0  0  0
    2.6398   -4.5883    0.0000 C   0  0  0  0  0  0  0  0  0  0  0  0
    0.7857   -3.2369    0.0000 C   0  0  0  0  0  0  0  0  0  0  0  0
    1.8699   -5.6725    0.0000 C   0  0  0  0  0  0  0  0  0  0  0  0
    0.0000   -4.3212    0.0000 C   0  0  0  0  0  0  0  0  0  0  0  0
    0.5343   -5.5311    0.0000 C   0  0  0  0  0  0  0  0  0  0  0  0
  1  2  1  0  0  0  0 
  2  3  1  0  0  0  0 
  2  4  2  0  0  0  0 
  4  5  1  0  0  0  0 
  5  6  1  0  0  0  0 
  5  7  1  0  0  0  0 
  6  8  1  0  0  0  0 
  6  9  1  0  0  0  0 
  6  7  1  0  0  0  0 
  7 10  1  0  0  0  0 
 10 11  2  0  0  0  0 
 10 12  1  0  0  0  0 
 12 13  1  0  0  0  0 
 13 14  1  0  0  0  0 
 14 15  2  0  0  0  0 
 14 16  1  0  0  0  0 
 15 17  1  0  0  0  0 
 18 16  2  0  0  0  0 
 17 18  1  0  0  0  0 
 18 19  1  0  0  0  0 
 19 20  1  0  0  0  0 
 20 21  2  0  0  0  0 
 20 22  1  0  0  0  0 
 21 23  1  0  0  0  0 
 24 22  2  0  0  0  0 
 23 25  2  0  0  0  0 
 25 24  1  0  0  0  0 
M  END
> <Name>
Cyclopropanecarboxylic acid, 2,2-dimethyl-3-(2-methyl-1-propenyl)-, (5-(phenylmethyl)-3-furanyl)methyl ester, cis,trans-(+/-)-

> <Source>
DSSTox2DMolFile

> <Tox>
7.899

> <CAS>
10453-86-8

$$$$

  CDK

 12 11  0  0  0  0  0  0  0  0999 V2000
    3.3238   -0.0000    0.0000 C   0  0  0  0  0  0  0  0  0  0  0  0
    1.9931   -0.0000    0.0000 C   0  0  0  0  0  0  0  0  0  0  0  0
    1.3307   -1.1521    0.0000 O   0  0  0  0  0  0  0  0  0  0  0  0
    1.9931   -2.3042    0.0000 C   0  0  0  0  0  0  0  0  0  0  0  0
    3.3238   -2.3042    0.0000 O   0  0  0  0  0  0  0  0  0  0  0  0
    1.3307   -3.4563    0.0000 C   0  0  0  0  0  0  0  0  0  0  0  0
    0.0000   -3.4563    0.0000 Cl  0  0  0  0  0  0  0  0  0  0  0  0
    1.9931   -4.6084    0.0000 C   0  0  0  0  0  0  0  0  0  0  0  0
    1.3307   -5.7604    0.0000 O   0  0  0  0  0  0  0  0  0  0  0  0
    3.3238   -4.6084    0.0000 O   0  0  0  0  0  0  0  0  0  0  0  0
    3.9920   -5.7604    0.0000 C   0  0  0  0  0  0  0  0  0  0  0  0
    5.3227   -5.7604    0.0000 C   0  0  0  0  0  0  0  0  0  0  0  0
  1  2  1  0  0  0  0 
  2  3  1  0  0  0  0 
  3  4  1  0  0  0  0 
  4  5  2  0  0  0  0 
  4  6  1  0  0  0  0 
  6  7  1  0  0  0  0 
  6  8  1  0  0  0  0 
  8  9  2  0  0  0  0 
  8 10  1  0  0  0  0 
 10 11  1  0  0  0  0 
 11 12  1  0  0  0  0 
M  END
> <Name>
Propanedioic acid, chloro-, diethyl ester

> <Source>
DSSTox2DMolFile

> <Tox>
5.311

> <CAS>
14064-10-9

$$$$

  CDK

 19 19  0  0  0  0  0  0  0  0999 V2000
   10.3685   -3.4527    0.0000 C   0  0  0  0  0  0  0  0  0  0  0  0
   10.3685   -4.7799    0.0000 C   0  0  0  0  0  0  0  0  0  0  0  0
    9.2176   -2.7891    0.0000 C   0  0  0  0  0  0  0  0  0  0  0  0
    9.2176   -5.4538    0.0000 C   0  0  0  0  0  0  0  0  0  0  0  0
    8.0563   -3.4527    0.0000 C   0  0  0  0  0  0  0  0  0  0  0  0
    8.0563   -4.7799    0.0000 C   0  0  0  0  0  0  0  0  0  0  0  0
    6.9054   -2.7891    0.0000 C   0  0  0  0  0  0  0  0  0  0  0  0
    6.9054   -1.4620    0.0000 C   0  0  0  0  0  0  0  0  0  0  0  0
    5.7545   -3.4527    0.0000 N   0  0  0  0  0  0  0  0  0  0  0  0
    6.9054   -0.1348    0.0000 N   0  0  0  0  0  0  0  0  0  0  0  0
    4.6036   -2.7891    0.0000 O   0  0  0  0  0  0  0  0  0  0  0  0
    3.4423   -3.4527    0.0000 P   0  0  0  0  0  0  0  0  0  0  0  0
    2.7891   -2.3018    0.0000 O   0  0  0  0  0  0  0  0  0  0  0  0
    2.2914   -4.1267    0.0000 O   0  0  0  0  0  0  0  0  0  0  0  0
    4.1163   -4.6036    0.0000 S   0  0  0  0  0  0  0  0  0  0  0  0
    3.4423   -1.1613    0.0000 C   0  0  0  0  0  0  0  0  0  0  0  0
    1.1405   -3.4527    0.0000 C   0  0  0  0  0  0  0  0  0  0  0  0
    2.7891   -0.0000    0.0000 C   0  0  0  0  0  0  0  0  0  0  0  0
    0.0000   -4.1267    0.0000 C   0  0  0  0  0  0  0  0  0  0  0  0
  1  2  1  0  0  0  0 
  1  3  2  0  0  0  0 
  2  4  2  0  0  0  0 
  3  5  1  0  0  0  0 
  4  6  1  0  0  0  0 
  5  6  2  0  0  0  0 
  5  7  1  0  0  0  0 
  7  8  1  0  0  0  0 
  7  9  2  0  0  0  0 
  8 10  3  0  0  0  0 
  9 11  1  0  0  0  0 
 11 12  1  0  0  0  0 
 12 13  1  0  0  0  0 
 12 14  1  0  0  0  0 
 12 15  2  0  0  0  0 
 13 16  1  0  0  0  0 
 14 17  1  0  0  0  0 
 16 18  1  0  0  0  0 
 17 19  1  0  0  0  0 
M  END
> <Name>
3,5-Dioxa-6-aza-4-phosphaoct-6-ene-8-nitrile, 4-ethoxy-7-phenyl-, 4-sulfide

> <Source>
DSSTox2DMolFile

> <Tox>
5.012

> <CAS>
14816-18-3

$$$$

  CDK

 18 18  0  0  0  0  0  0  0  0999 V2000
    4.6558   -2.3003    0.0000 C   0  0  0  0  0  0  0  0  0  0  0  0
    3.9858   -1.1536    0.0000 C   0  0  0  0  0  0  0  0  0  0  0  0
    5.9821   -2.3003    0.0000 C   0  0  0  0  0  0  0  0  0  0  0  0
    3.9858   -3.4539    0.0000 C   0  0  0  0  0  0  0  0  0  0  0  0
    4.6558   -0.0000    0.0000 C   0  0  0  0  0  0  0  0  0  0  0  0
    6.6452   -3.4539    0.0000 C   0  0  0  0  0  0  0  0  0  0  0  0
    4.6558   -4.6075    0.0000 C   0  0  0  0  0  0  0  0  0  0  0  0
    2.6595   -3.4539    0.0000 N   0  0  0  0  0  0  0  0  0  0  0  0
    5.9821   -4.6075    0.0000 C   0  0  0  0  0  0  0  0  0  0  0  0
    3.9858   -5.7541    0.0000 C   0  0  0  0  0  0  0  0  0  0  0  0
    1.9963   -2.3003    0.0000 C   0  0  0  0  0  0  0  0  0  0  0  0
    1.9963   -4.6075    0.0000 C   0  0  0  0  0  0  0  0  0  0  0  0
    4.6558   -6.9077    0.0000 C   0  0  0  0  0  0  0  0  0  0  0  0
    0.6631   -2.3003    0.0000 O   0  0  0  0  0  0  0  0  0  0  0  0
    2.6595   -5.7541    0.0000 O   0  0  0  0  0  0  0  0  0  0  0  0
    0.6631   -4.6075    0.0000 C   0  0  0  0  0  0  0  0  0  0  0  0
    0.0000   -1.1536    0.0000 C   0  0  0  0  0  0  0  0  0  0  0  0
    0.0000   -3.4539    0.0000 Cl  0  0  0  0  0  0  0  0  0  0  0  0
  1  2  1  0  0  0  0 
  1  3  2  0  0  0  0 
  1  4  1  0  0  0  0 
  2  5  1  0  0  0  0 
  3  6  1  0  0  0  0 
  7  4  2  0  0  0  0 
  4  8  1  0  0  0  0 
  6  9  2  0  0  0  0 
  9  7  1  0  0  0  0 
  7 10  1  0  0  0  0 
  8 11  1  0  0  0  0 
  8 12  1  0  0  0  0 
 10 13  1  0  0  0  0 
 11 14  1  0  0  0  0 
 12 15  2  0  0  0  0 
 12 16  1  0  0  0  0 
 14 17  1  0  0  0  0 
 16 18  1  0  0  0  0 
M  END
> <Name>
Acetamide, 2-chloro-N-(2,6-diethylphenyl)-N-(methoxymethyl)- (9CI)

> <Source>
DSSTox2DMolFile

> <Tox>
4.732

> <CAS>
15972-60-8

$$$$

  CDK

 21 22  0  0  0  0  0  0  0  0999 V2000
    4.3220   -3.3476    0.0000 C   0  0  0  0  0  0  0  0  0  0  0  0
    3.5406   -2.2864    0.0000 N   0  0  0  0  0  0  0  0  0  0  0  0
    3.5406   -4.4378    0.0000 N   0  0  0  0  0  0  0  0  0  0  0  0
    5.6630   -3.3476    0.0000 N   0  0  0  0  0  0  0  0  0  0  0  0
    3.9747   -0.9937    0.0000 C   0  0  0  0  0  0  0  0  0  0  0  0
    2.2961   -2.6916    0.0000 C   0  0  0  0  0  0  0  0  0  0  0  0
    2.2961   -4.0326    0.0000 C   0  0  0  0  0  0  0  0  0  0  0  0
    6.3190   -4.4957    0.0000 C   0  0  0  0  0  0  0  0  0  0  0  0
    3.0775   -0.0000    0.0000 O   0  0  0  0  0  0  0  0  0  0  0  0
    5.2964   -0.7139    0.0000 N   0  0  0  0  0  0  0  0  0  0  0  0
    1.1480   -2.0356    0.0000 C   0  0  0  0  0  0  0  0  0  0  0  0
    1.1480   -4.6983    0.0000 C   0  0  0  0  0  0  0  0  0  0  0  0
    5.6630   -5.6437    0.0000 O   0  0  0  0  0  0  0  0  0  0  0  0
    7.6504   -4.4957    0.0000 O   0  0  0  0  0  0  0  0  0  0  0  0
    6.1357   -1.7269    0.0000 C   0  0  0  0  0  0  0  0  0  0  0  0
    0.0000   -2.6916    0.0000 C   0  0  0  0  0  0  0  0  0  0  0  0
    0.0000   -4.0326    0.0000 C   0  0  0  0  0  0  0  0  0  0  0  0
    8.3161   -5.6437    0.0000 C   0  0  0  0  0  0  0  0  0  0  0  0
    7.4671   -1.4761    0.0000 C   0  0  0  0  0  0  0  0  0  0  0  0
    8.3546   -2.4504    0.0000 C   0  0  0  0  0  0  0  0  0  0  0  0
    9.6474   -2.1996    0.0000 C   0  0  0  0  0  0  0  0  0  0  0  0
  1  2  1  0  0  0  0 
  1  3  2  0  0  0  0 
  1  4  1  0  0  0  0 
  2  5  1  0  0  0  0 
  2  6  1  0  0  0  0 
  3  7  1  0  0  0  0 
  4  8  1  0  0  0  0 
  5  9  2  0  0  0  0 
  5 10  1  0  0  0  0 
  6 11  1  0  0  0  0 
  6  7  2  0  0  0  0 
  7 12  1  0  0  0  0 
  8 13  2  0  0  0  0 
  8 14  1  0  0  0  0 
 10 15  1  0  0  0  0 
 11 16  2  0  0  0  0 
 12 17  2  0  0  0  0 
 14 18  1  0  0  0  0 
 15 19  1  0  0  0  0 
 16 17  1  0  0  0  0 
 19 20  1  0  0  0  0 
 20 21  1  0  0  0  0 
M  END
> <Name>
Carbamic acid, (1-((butylamino)carbonyl)-1H-benzimidazol-2-yl)-, methyl ester

> <Source>
DSSTox2DMolFile

> <Tox>
5.184

> <CAS>
17804-35-2

$$$$

  CDK

 16 16  0  0  0  0  0  0  0  0999 V2000
    5.7576   -1.1826    0.0000 C   0  0  0  0  0  0  0  0  0  0  0  0
    4.6268   -0.5187    0.0000 N   0  0  0  0  0  0  0  0  0  0  0  0
    5.7576   -2.5313    0.0000 N   0  0  0  0  0  0  0  0  0  0  0  0
    6.9298   -0.5083    0.0000 N   0  0  0  0  0  0  0  0  0  0  0  0
    3.4753   -1.1826    0.0000 C   0  0  0  0  0  0  0  0  0  0  0  0
    4.6268   -3.1952    0.0000 C   0  0  0  0  0  0  0  0  0  0  0  0
    8.0710   -1.1826    0.0000 C   0  0  0  0  0  0  0  0  0  0  0  0
    3.4753   -2.5313    0.0000 N   0  0  0  0  0  0  0  0  0  0  0  0
    2.3030   -0.5083    0.0000 N   0  0  0  0  0  0  0  0  0  0  0  0
    4.6268   -4.5231    0.0000 Cl  0  0  0  0  0  0  0  0  0  0  0  0
    9.2432   -1.8362    0.0000 C   0  0  0  0  0  0  0  0  0  0  0  0
    8.7245   -0.0000    0.0000 C   0  0  0  0  0  0  0  0  0  0  0  0
    7.4485   -2.3134    0.0000 C   0  0  0  0  0  0  0  0  0  0  0  0
    1.1411   -1.1826    0.0000 C   0  0  0  0  0  0  0  0  0  0  0  0
   10.3740   -2.4586    0.0000 N   0  0  0  0  0  0  0  0  0  0  0  0
    0.0000   -0.5083    0.0000 C   0  0  0  0  0  0  0  0  0  0  0  0
  1  2  1  0  0  0  0 
  1  3  2  0  0  0  0 
  1  4  1  0  0  0  0 
  2  5  2  0  0  0  0 
  3  6  1  0  0  0  0 
  4  7  1  0  0  0  0 
  8  5  1  0  0  0  0 
  5  9  1  0  0  0  0 
  8  6  2  0  0  0  0 
  6 10  1  0  0  0  0 
 11  7  1  0  0  0  0 
  7 12  1  0  0  0  0 
  7 13  1  0  0  0  0 
  9 14  1  0  0  0  0 
 15 11  3  0  0  0  0 
 14 16  1  0  0  0  0 
M  END
> <Name>
Propanenitrile, 2-((4-chloro-6-(ethylamino)-1,3,5-triazin-2-yl)amino)-2-methyl-

> <Source>
DSSTox2DMolFile

> <Tox>
4.116

> <CAS>
21725-46-2

$$$$

  CDK

 21 21  0  0  0  0  0  0  0  0999 V2000
    3.4459   -1.9863    0.0000 N   0  0  0  0  0  0  0  0  0  0  0  0
    2.3096   -2.6791    0.0000 C   0  0  0  0  0  0  0  0  0  0  0  0
    3.4459   -0.6559    0.0000 C   0  0  0  0  0  0  0  0  0  0  0  0
    4.6192   -2.6791    0.0000 C   0  0  0  0  0  0  0  0  0  0  0  0
    2.3096   -4.0095    0.0000 C   0  0  0  0  0  0  0  0  0  0  0  0
    1.1363   -1.9863    0.0000 C   0  0  0  0  0  0  0  0  0  0  0  0
    2.3096   -0.0000    0.0000 O   0  0  0  0  0  0  0  0  0  0  0  0
    4.6192   -0.0000    0.0000 C   0  0  0  0  0  0  0  0  0  0  0  0
    4.6192   -4.0095    0.0000 O   0  0  0  0  0  0  0  0  0  0  0  0
    1.1363   -4.6654    0.0000 C   0  0  0  0  0  0  0  0  0  0  0  0
    3.4459   -4.6654    0.0000 C   0  0  0  0  0  0  0  0  0  0  0  0
    0.0000   -2.6791    0.0000 C   0  0  0  0  0  0  0  0  0  0  0  0
    1.1363   -0.6559    0.0000 C   0  0  0  0  0  0  0  0  0  0  0  0
    5.7555   -0.6559    0.0000 Cl  0  0  0  0  0  0  0  0  0  0  0  0
    5.7555   -4.6654    0.0000 C   0  0  0  0  0  0  0  0  0  0  0  0
    0.0000   -4.0095    0.0000 C   0  0  0  0  0  0  0  0  0  0  0  0
    3.4459   -5.9957    0.0000 C   0  0  0  0  0  0  0  0  0  0  0  0
    0.0000   -0.0000    0.0000 C   0  0  0  0  0  0  0  0  0  0  0  0
    6.9288   -4.0095    0.0000 C   0  0  0  0  0  0  0  0  0  0  0  0
    8.0836   -4.6654    0.0000 C   0  0  0  0  0  0  0  0  0  0  0  0
    9.2384   -4.0095    0.0000 C   0  0  0  0  0  0  0  0  0  0  0  0
  1  2  1  0  0  0  0 
  1  3  1  0  0  0  0 
  1  4  1  0  0  0  0 
  2  5  1  0  0  0  0 
  2  6  2  0  0  0  0 
  3  7  2  0  0  0  0 
  3  8  1  0  0  0  0 
  4  9  1  0  0  0  0 
  5 10  2  0  0  0  0 
  5 11  1  0  0  0  0 
  6 12  1  0  0  0  0 
  6 13  1  0  0  0  0 
  8 14  1  0  0  0  0 
  9 15  1  0  0  0  0 
 16 10  1  0  0  0  0 
 11 17  1  0  0  0  0 
 16 12  2  0  0  0  0 
 13 18  1  0  0  0  0 
 15 19  1  0  0  0  0 
 19 20  1  0  0  0  0 
 20 21  1  0  0  0  0 
M  END
> <Name>
Acetamide, N-(butoxymethyl)-2-chloro-N-(2,6-diethylphenyl)-

> <Source>
DSSTox2DMolFile

> <Tox>
5.653

> <CAS>
23184-66-9

$$$$

  CDK

 21 22  0  0  0  0  0  0  0  0999 V2000
    3.9813   -3.4433    0.0000 C   0  0  0  0  0  0  0  0  0  0  0  0
    4.6389   -2.3075    0.0000 N   0  0  0  0  0  0  0  0  0  0  0  0
    2.6423   -3.4433    0.0000 C   0  0  0  0  0  0  0  0  0  0  0  0
    4.6509   -4.6031    0.0000 O   0  0  0  0  0  0  0  0  0  0  0  0
    5.9780   -2.3075    0.0000 C   0  0  0  0  0  0  0  0  0  0  0  0
    1.9727   -2.3075    0.0000 C   0  0  0  0  0  0  0  0  0  0  0  0
    1.9847   -4.6031    0.0000 C   0  0  0  0  0  0  0  0  0  0  0  0
    6.6356   -1.1478    0.0000 N   0  0  0  0  0  0  0  0  0  0  0  0
    6.6475   -3.4433    0.0000 O   0  0  0  0  0  0  0  0  0  0  0  0
    2.6303   -1.1239    0.0000 F   0  0  0  0  0  0  0  0  0  0  0  0
    0.6576   -2.3075    0.0000 C   0  0  0  0  0  0  0  0  0  0  0  0
    2.6542   -5.7508    0.0000 F   0  0  0  0  0  0  0  0  0  0  0  0
    0.6576   -4.6031    0.0000 C   0  0  0  0  0  0  0  0  0  0  0  0
    7.9746   -1.1478    0.0000 C   0  0  0  0  0  0  0  0  0  0  0  0
    0.0000   -3.4433    0.0000 C   0  0  0  0  0  0  0  0  0  0  0  0
    8.6322   -0.0000    0.0000 C   0  0  0  0  0  0  0  0  0  0  0  0
    8.6561   -2.3075    0.0000 C   0  0  0  0  0  0  0  0  0  0  0  0
    9.9832   -0.0000    0.0000 C   0  0  0  0  0  0  0  0  0  0  0  0
    9.9832   -2.3075    0.0000 C   0  0  0  0  0  0  0  0  0  0  0  0
   10.6408   -1.1478    0.0000 C   0  0  0  0  0  0  0  0  0  0  0  0
   11.9560   -1.1478    0.0000 Cl  0  0  0  0  0  0  0  0  0  0  0  0
  1  2  1  0  0  0  0 
  1  3  1  0  0  0  0 
  1  4  2  0  0  0  0 
  2  5  1  0  0  0  0 
  3  6  1  0  0  0  0 
  3  7  2  0  0  0  0 
  5  8  1  0  0  0  0 
  5  9  2  0  0  0  0 
  6 10  1  0  0  0  0 
  6 11  2  0  0  0  0 
  7 12  1  0  0  0  0 
  7 13  1  0  0  0  0 
  8 14  1  0  0  0  0 
 15 11  1  0  0  0  0 
 15 13  2  0  0  0  0 
 14 16  1  0  0  0  0 
 14 17  2  0  0  0  0 
 16 18  2  0  0  0  0 
 17 19  1  0  0  0  0 
 20 18  1  0  0  0  0 
 20 19  2  0  0  0  0 
 20 21  1  0  0  0  0 
M  END
> <Name>
Benzamide, N-(((4-chlorophenyl)amino)carbonyl)-2,6-difluoro-

> <Source>
DSSTox2DMolFile

> <Tox>
2.859

> <CAS>
35367-38-5

$$$$

  CDK

 26 28  0  0  0  0  0  0  0  0999 V2000
    1.3321   -5.9824    0.0000 C   0  0  0  0  0  0  0  0  0  0  0  0
    1.9981   -4.8288    0.0000 C   0  0  0  0  0  0  0  0  0  0  0  0
    2.6641   -5.9824    0.0000 C   0  0  0  0  0  0  0  0  0  0  0  0
    0.0000   -5.9824    0.0000 C   0  0  0  0  0  0  0  0  0  0  0  0
    0.6779   -7.1361    0.0000 C   0  0  0  0  0  0  0  0  0  0  0  0
    2.6641   -3.6751    0.0000 C   0  0  0  0  0  0  0  0  0  0  0  0
    1.3321   -3.6751    0.0000 C   0  0  0  0  0  0  0  0  0  0  0  0
    3.8178   -6.6366    0.0000 C   0  0  0  0  0  0  0  0  0  0  0  0
    4.9715   -5.9824    0.0000 O   0  0  0  0  0  0  0  0  0  0  0  0
    3.8178   -7.9686    0.0000 O   0  0  0  0  0  0  0  0  0  0  0  0
    6.1252   -6.6366    0.0000 C   0  0  0  0  0  0  0  0  0  0  0  0
    6.1252   -7.9686    0.0000 C   0  0  0  0  0  0  0  0  0  0  0  0
    7.2788   -5.9824    0.0000 C   0  0  0  0  0  0  0  0  0  0  0  0
    6.1252   -9.3007    0.0000 N   0  0  0  0  0  0  0  0  0  0  0  0
    7.2788   -4.6504    0.0000 C   0  0  0  0  0  0  0  0  0  0  0  0
    8.4325   -6.6366    0.0000 C   0  0  0  0  0  0  0  0  0  0  0  0
    8.4325   -3.9962    0.0000 C   0  0  0  0  0  0  0  0  0  0  0  0
    9.5862   -5.9824    0.0000 C   0  0  0  0  0  0  0  0  0  0  0  0
    8.4325   -2.6641    0.0000 O   0  0  0  0  0  0  0  0  0  0  0  0
    9.5862   -4.6504    0.0000 C   0  0  0  0  0  0  0  0  0  0  0  0
    9.5862   -1.9862    0.0000 C   0  0  0  0  0  0  0  0  0  0  0  0
    9.5862   -0.6660    0.0000 C   0  0  0  0  0  0  0  0  0  0  0  0
   10.7398   -2.6641    0.0000 C   0  0  0  0  0  0  0  0  0  0  0  0
   10.7398   -0.0000    0.0000 C   0  0  0  0  0  0  0  0  0  0  0  0
   11.8935   -1.9862    0.0000 C   0  0  0  0  0  0  0  0  0  0  0  0
   11.8935   -0.6660    0.0000 C   0  0  0  0  0  0  0  0  0  0  0  0
  1  2  1  0  0  0  0 
  1  3  1  0  0  0  0 
  1  4  1  0  0  0  0 
  1  5  1  0  0  0  0 
  2  6  1  0  0  0  0 
  2  7  1  0  0  0  0 
  2  3  1  0  0  0  0 
  3  8  1  0  0  0  0 
  8  9  1  0  0  0  0 
  8 10  2  0  0  0  0 
  9 11  1  0  0  0  0 
 12 11  1  0  0  0  0 
 11 13  1  0  0  0  0 
 14 12  3  0  0  0  0 
 13 15  1  0  0  0  0 
 13 16  2  0  0  0  0 
 15 17  2  0  0  0  0 
 16 18  1  0  0  0  0 
 17 19  1  0  0  0  0 
 17 20  1  0  0  0  0 
 18 20  2  0  0  0  0 
 19 21  1  0  0  0  0 
 21 22  1  0  0  0  0 
 21 23  2  0  0  0  0 
 22 24  2  0  0  0  0 
 23 25  1  0  0  0  0 
 24 26  1  0  0  0  0 
 25 26  2  0  0  0  0 
M  END
> <Name>
Cyclopropanecarboxylic acid, 2,2,3,3-tetramethyl-, cyano(3-phenoxyphenyl)methyl ester

> <Source>
DSSTox2DMolFile

> <Tox>
8.169

> <CAS>
39515-41-8

$$$$

  CDK

 14 14  0  0  0  0  0  0  0  0999 V2000
    8.6394   -0.0000    0.0000 N   0  0  0  0  0  0  0  0  0  0  0  0
    7.9742   -1.1490    0.0000 C   0  0  0  0  0  0  0  0  0  0  0  0
    8.6394   -2.3067    0.0000 C   0  0  0  0  0  0  0  0  0  0  0  0
    6.6437   -1.1490    0.0000 C   0  0  0  0  0  0  0  0  0  0  0  0
    7.9742   -3.4558    0.0000 C   0  0  0  0  0  0  0  0  0  0  0  0
    5.9785   -2.3067    0.0000 C   0  0  0  0  0  0  0  0  0  0  0  0
    6.6437   -3.4558    0.0000 C   0  0  0  0  0  0  0  0  0  0  0  0
    5.9785   -4.6048    0.0000 O   0  0  0  0  0  0  0  0  0  0  0  0
    4.6480   -4.6048    0.0000 C   0  0  0  0  0  0  0  0  0  0  0  0
    3.9914   -3.4558    0.0000 C   0  0  0  0  0  0  0  0  0  0  0  0
    2.6609   -3.4558    0.0000 C   0  0  0  0  0  0  0  0  0  0  0  0
    1.9957   -2.3067    0.0000 C   0  0  0  0  0  0  0  0  0  0  0  0
    0.6652   -2.3067    0.0000 C   0  0  0  0  0  0  0  0  0  0  0  0
    0.0000   -1.1490    0.0000 C   0  0  0  0  0  0  0  0  0  0  0  0
  1  2  1  0  0  0  0 
  2  3  2  0  0  0  0 
  2  4  1  0  0  0  0 
  3  5  1  0  0  0  0 
  6  4  2  0  0  0  0 
  5  7  2  0  0  0  0 
  7  6  1  0  0  0  0 
  7  8  1  0  0  0  0 
  8  9  1  0  0  0  0 
  9 10  1  0  0  0  0 
 10 11  1  0  0  0  0 
 11 12  1  0  0  0  0 
 12 13  1  0  0  0  0 
 13 14  1  0  0  0  0 
M  END
> <Name>
Benzenamine, 4-(hexyloxy)-

> <Source>
DSSTox2DMolFile

> <Tox>
4.777

> <CAS>
39905-57-2

$$$$

  CDK

 18 19  0  0  0  0  0  0  0  0999 V2000
    2.3179   -3.2986    0.0000 N   0  0  0  0  0  0  0  0  0  0  0  0
    2.3179   -1.9856    0.0000 C   0  0  0  0  0  0  0  0  0  0  0  0
    3.4850   -3.9875    0.0000 C   0  0  0  0  0  0  0  0  0  0  0  0
    3.4607   -1.3373    0.0000 N   0  0  0  0  0  0  0  0  0  0  0  0
    1.1671   -1.3130    0.0000 N   0  0  0  0  0  0  0  0  0  0  0  0
    4.6115   -3.2986    0.0000 N   0  0  0  0  0  0  0  0  0  0  0  0
    3.4850   -5.3004    0.0000 O   0  0  0  0  0  0  0  0  0  0  0  0
    4.6115   -1.9856    0.0000 C   0  0  0  0  0  0  0  0  0  0  0  0
    3.4607   -0.0000    0.0000 C   0  0  0  0  0  0  0  0  0  0  0  0
    0.0000   -1.9856    0.0000 C   0  0  0  0  0  0  0  0  0  0  0  0
    1.1671   -0.0000    0.0000 C   0  0  0  0  0  0  0  0  0  0  0  0
    5.7867   -3.9632    0.0000 C   0  0  0  0  0  0  0  0  0  0  0  0
    5.7867   -1.3130    0.0000 O   0  0  0  0  0  0  0  0  0  0  0  0
    5.7867   -5.3004    0.0000 C   0  0  0  0  0  0  0  0  0  0  0  0
    6.9376   -3.2986    0.0000 C   0  0  0  0  0  0  0  0  0  0  0  0
    6.9376   -5.9488    0.0000 C   0  0  0  0  0  0  0  0  0  0  0  0
    8.1046   -3.9632    0.0000 C   0  0  0  0  0  0  0  0  0  0  0  0
    8.1046   -5.2680    0.0000 C   0  0  0  0  0  0  0  0  0  0  0  0
  1  2  2  0  0  0  0 
  1  3  1  0  0  0  0 
  4  2  1  0  0  0  0 
  2  5  1  0  0  0  0 
  6  3  1  0  0  0  0 
  3  7  2  0  0  0  0 
  8  4  1  0  0  0  0 
  4  9  1  0  0  0  0 
  5 10  1  0  0  0  0 
  5 11  1  0  0  0  0 
  8  6  1  0  0  0  0 
  6 12  1  0  0  0  0 
  8 13  2  0  0  0  0 
 12 14  1  0  0  0  0 
 12 15  1  0  0  0  0 
 14 16  1  0  0  0  0 
 15 17  1  0  0  0  0 
 16 18  1  0  0  0  0 
 17 18  1  0  0  0  0 
M  END
> <Name>
3-Cyclohexyl-6-dimethylamino-1-methyl-1,2,3,4-tetrahydro-1,3,5-triazine-2,4-dione

> <Source>
DSSTox2DMolFile

> <Tox>
2.964

> <CAS>
51235-04-2

$$$$

  CDK

 26 28  0  0  0  0  0  0  0  0999 V2000
    6.6454   -5.3632    0.0000 C   0  0  0  0  0  0  0  0  0  0  0  0
    5.9836   -6.5213    0.0000 C   0  0  0  0  0  0  0  0  0  0  0  0
    5.9836   -4.2189    0.0000 C   0  0  0  0  0  0  0  0  0  0  0  0
    4.6600   -6.5213    0.0000 C   0  0  0  0  0  0  0  0  0  0  0  0
    4.6600   -4.2189    0.0000 C   0  0  0  0  0  0  0  0  0  0  0  0
    6.6454   -3.0607    0.0000 C   0  0  0  0  0  0  0  0  0  0  0  0
    3.9845   -5.3632    0.0000 C   0  0  0  0  0  0  0  0  0  0  0  0
    7.9827   -3.0607    0.0000 O   0  0  0  0  0  0  0  0  0  0  0  0
    2.6609   -5.3632    0.0000 O   0  0  0  0  0  0  0  0  0  0  0  0
    8.6445   -1.9164    0.0000 C   0  0  0  0  0  0  0  0  0  0  0  0
    1.9991   -6.5213    0.0000 C   0  0  0  0  0  0  0  0  0  0  0  0
    7.9827   -0.7583    0.0000 O   0  0  0  0  0  0  0  0  0  0  0  0
    9.9819   -1.9164    0.0000 C   0  0  0  0  0  0  0  0  0  0  0  0
    2.6609   -7.6656    0.0000 C   0  0  0  0  0  0  0  0  0  0  0  0
    0.6618   -6.5213    0.0000 C   0  0  0  0  0  0  0  0  0  0  0  0
   11.1262   -1.2546    0.0000 C   0  0  0  0  0  0  0  0  0  0  0  0
   11.1262   -2.5782    0.0000 C   0  0  0  0  0  0  0  0  0  0  0  0
    1.9991   -8.8237    0.0000 C   0  0  0  0  0  0  0  0  0  0  0  0
    0.0000   -7.6656    0.0000 C   0  0  0  0  0  0  0  0  0  0  0  0
   10.6712   -0.0000    0.0000 C   0  0  0  0  0  0  0  0  0  0  0  0
   12.4360   -1.0202    0.0000 C   0  0  0  0  0  0  0  0  0  0  0  0
   11.7880   -3.7363    0.0000 C   0  0  0  0  0  0  0  0  0  0  0  0
    0.6618   -8.8237    0.0000 C   0  0  0  0  0  0  0  0  0  0  0  0
   13.1253   -3.7363    0.0000 C   0  0  0  0  0  0  0  0  0  0  0  0
   13.7871   -4.8806    0.0000 Cl  0  0  0  0  0  0  0  0  0  0  0  0
   13.7871   -2.5782    0.0000 Cl  0  0  0  0  0  0  0  0  0  0  0  0
  1  2  2  0  0  0  0 
  1  3  1  0  0  0  0 
  2  4  1  0  0  0  0 
  5  3  2  0  0  0  0 
  3  6  1  0  0  0  0 
  4  7  2  0  0  0  0 
  7  5  1  0  0  0  0 
  6  8  1  0  0  0  0 
  7  9  1  0  0  0  0 
  8 10  1  0  0  0  0 
  9 11  1  0  0  0  0 
 10 12  2  0  0  0  0 
 10 13  1  0  0  0  0 
 11 14  2  0  0  0  0 
 11 15  1  0  0  0  0 
 13 16  1  0  0  0  0 
 13 17  1  0  0  0  0 
 14 18  1  0  0  0  0 
 19 15  2  0  0  0  0 
 16 20  1  0  0  0  0 
 16 21  1  0  0  0  0 
 16 17  1  0  0  0  0 
 17 22  1  0  0  0  0 
 18 23  2  0  0  0  0 
 23 19  1  0  0  0  0 
 22 24  2  0  0  0  0 
 24 25  1  0  0  0  0 
 24 26  1  0  0  0  0 
M  END
> <Name>
Cyclopropanecarboxylic acid, 3-(2,2-dichlorovinyl)-2,2-dimethyl-, 3-phenoxybenzyl ester, (+-)-, (cis,trans)-

> <Source>
DSSTox2DMolFile

> <Tox>
7.211

> <CAS>
52645-53-1

$$$$

  CDK

 12 11  0  0  0  0  0  0  0  0999 V2000
    5.7733   -1.3278    0.0000 C   0  0  0  0  0  0  0  0  0  0  0  0
    5.7733   -0.0000    0.0000 O   0  0  0  0  0  0  0  0  0  0  0  0
    6.9279   -1.9860    0.0000 O   0  0  0  0  0  0  0  0  0  0  0  0
    4.6186   -1.9860    0.0000 N   0  0  0  0  0  0  0  0  0  0  0  0
    8.0941   -1.3278    0.0000 C   0  0  0  0  0  0  0  0  0  0  0  0
    3.4524   -1.3278    0.0000 C   0  0  0  0  0  0  0  0  0  0  0  0
    9.2487   -1.9860    0.0000 C   0  0  0  0  0  0  0  0  0  0  0  0
    2.2978   -1.9860    0.0000 C   0  0  0  0  0  0  0  0  0  0  0  0
   10.4034   -2.6672    0.0000 C   0  0  0  0  0  0  0  0  0  0  0  0
    1.1431   -1.3278    0.0000 C   0  0  0  0  0  0  0  0  0  0  0  0
   11.5465   -3.3254    0.0000 I   0  0  0  0  0  0  0  0  0  0  0  0
    0.0000   -1.9860    0.0000 C   0  0  0  0  0  0  0  0  0  0  0  0
  1  2  2  0  0  0  0 
  1  3  1  0  0  0  0 
  1  4  1  0  0  0  0 
  3  5  1  0  0  0  0 
  4  6  1  0  0  0  0 
  5  7  1  0  0  0  0 
  6  8  1  0  0  0  0 
  7  9  3  0  0  0  0 
  8 10  1  0  0  0  0 
  9 11  1  0  0  0  0 
 10 12  1  0  0  0  0 
M  END
> <Name>
Carbamic acid, butyl-, 3-iodo-2-propynyl ester

> <Source>
DSSTox2DMolFile

> <Tox>
6.148

> <CAS>
55406-53-6

$$$$

  CDK

 19 19  0  0  0  0  0  0  0  0999 V2000
   13.8208   -3.3308    0.0000 C   0  0  0  0  0  0  0  0  0  0  0  0
   12.6737   -3.9942    0.0000 C   0  0  0  0  0  0  0  0  0  0  0  0
   11.5127   -3.3308    0.0000 C   0  0  0  0  0  0  0  0  0  0  0  0
   10.3656   -3.9942    0.0000 C   0  0  0  0  0  0  0  0  0  0  0  0
    9.2185   -3.3308    0.0000 C   0  0  0  0  0  0  0  0  0  0  0  0
    8.0575   -3.9942    0.0000 C   0  0  0  0  0  0  0  0  0  0  0  0
    6.9104   -3.3308    0.0000 C   0  0  0  0  0  0  0  0  0  0  0  0
    5.7633   -3.9942    0.0000 C   0  0  0  0  0  0  0  0  0  0  0  0
    4.6023   -3.3308    0.0000 O   0  0  0  0  0  0  0  0  0  0  0  0
    3.4552   -3.9942    0.0000 C   0  0  0  0  0  0  0  0  0  0  0  0
    3.4552   -5.3210    0.0000 C   0  0  0  0  0  0  0  0  0  0  0  0
    2.3081   -3.3308    0.0000 C   0  0  0  0  0  0  0  0  0  0  0  0
    2.3081   -5.9844    0.0000 C   0  0  0  0  0  0  0  0  0  0  0  0
    1.1471   -3.9942    0.0000 C   0  0  0  0  0  0  0  0  0  0  0  0
    2.3081   -1.9902    0.0000 N   0  0  0  0  0  0  0  0  0  0  0  0
    1.1471   -5.3210    0.0000 C   0  0  0  0  0  0  0  0  0  0  0  0
    1.1471   -1.3268    0.0000 C   0  0  0  0  0  0  0  0  0  0  0  0
    1.1471   -0.0000    0.0000 O   0  0  0  0  0  0  0  0  0  0  0  0
    0.0000   -1.9902    0.0000 C   0  0  0  0  0  0  0  0  0  0  0  0
  1  2  1  0  0  0  0 
  2  3  1  0  0  0  0 
  3  4  1  0  0  0  0 
  4  5  1  0  0  0  0 
  5  6  1  0  0  0  0 
  6  7  1  0  0  0  0 
  7  8  1  0  0  0  0 
  8  9  1  0  0  0  0 
  9 10  1  0  0  0  0 
 10 11  2  0  0  0  0 
 10 12  1  0  0  0  0 
 11 13  1  0  0  0  0 
 14 12  2  0  0  0  0 
 12 15  1  0  0  0  0 
 13 16  2  0  0  0  0 
 16 14  1  0  0  0  0 
 15 17  1  0  0  0  0 
 17 18  2  0  0  0  0 
 17 19  1  0  0  0  0 
M  END
> <Name>
N-[2-(octyloxy)phenyl]acetamide

> <Source>
DSSTox2DMolFile

> <Tox>
5.767

> <CAS>
55792-61-5

$$$$

  CDK

 10  9  0  0  0  0  0  0  0  0999 V2000
    0.0000   -0.6638    0.0000 C   0  0  0  0  0  0  0  0  0  0  0  0
    1.1513   -0.0000    0.0000 S   0  0  0  0  0  0  0  0  0  0  0  0
    2.3027   -0.6638    0.0000 C   0  0  0  0  0  0  0  0  0  0  0  0
    3.4540   -0.0000    0.0000 C   0  0  0  0  0  0  0  0  0  0  0  0
    4.6053   -0.6638    0.0000 C   0  0  0  0  0  0  0  0  0  0  0  0
    5.7670   -0.0000    0.0000 C   0  0  0  0  0  0  0  0  0  0  0  0
    6.9184   -0.6638    0.0000 C   0  0  0  0  0  0  0  0  0  0  0  0
    8.0697   -0.0000    0.0000 C   0  0  0  0  0  0  0  0  0  0  0  0
    9.2210   -0.6638    0.0000 S   0  0  0  0  0  0  0  0  0  0  0  0
   10.3724   -0.0000    0.0000 C   0  0  0  0  0  0  0  0  0  0  0  0
  1  2  1  0  0  0  0 
  2  3  1  0  0  0  0 
  3  4  1  0  0  0  0 
  4  5  1  0  0  0  0 
  5  6  1  0  0  0  0 
  6  7  1  0  0  0  0 
  7  8  1  0  0  0  0 
  8  9  1  0  0  0  0 
  9 10  1  0  0  0  0 
M  END
> <Name>
1,6-bis(methylthio)hexane

> <Source>
DSSTox2DMolFile

> <Tox>
4.247

> <CAS>
56348-40-4

$$$$

  CDK

 24 26  0  0  0  0  0  0  0  0999 V2000
    7.1245   -5.7544    0.0000 N   0  0  0  0  0  0  0  0  0  0  0  0
    5.8033   -5.7544    0.0000 C   0  0  0  0  0  0  0  0  0  0  0  0
    7.7998   -4.5996    0.0000 C   0  0  0  0  0  0  0  0  0  0  0  0
    7.7998   -6.9092    0.0000 C   0  0  0  0  0  0  0  0  0  0  0  0
    5.1379   -4.5996    0.0000 C   0  0  0  0  0  0  0  0  0  0  0  0
    7.1245   -3.4448    0.0000 C   0  0  0  0  0  0  0  0  0  0  0  0
    5.8033   -3.4448    0.0000 C   0  0  0  0  0  0  0  0  0  0  0  0
    3.8069   -4.5996    0.0000 C   0  0  0  0  0  0  0  0  0  0  0  0
    7.7998   -2.3096    0.0000 C   0  0  0  0  0  0  0  0  0  0  0  0
    5.1379   -2.3096    0.0000 O   0  0  0  0  0  0  0  0  0  0  0  0
    3.1414   -5.7544    0.0000 C   0  0  0  0  0  0  0  0  0  0  0  0
    3.1414   -3.4448    0.0000 C   0  0  0  0  0  0  0  0  0  0  0  0
    7.1245   -1.1548    0.0000 C   0  0  0  0  0  0  0  0  0  0  0  0
    9.1307   -2.3096    0.0000 C   0  0  0  0  0  0  0  0  0  0  0  0
    1.8105   -5.7544    0.0000 C   0  0  0  0  0  0  0  0  0  0  0  0
    1.8105   -3.4448    0.0000 C   0  0  0  0  0  0  0  0  0  0  0  0
    7.7998   -0.0000    0.0000 C   0  0  0  0  0  0  0  0  0  0  0  0
    9.7864   -1.1548    0.0000 C   0  0  0  0  0  0  0  0  0  0  0  0
    1.1450   -4.5996    0.0000 C   0  0  0  0  0  0  0  0  0  0  0  0
    1.1450   -6.9092    0.0000 C   0  0  0  0  0  0  0  0  0  0  0  0
    9.1307   -0.0000    0.0000 C   0  0  0  0  0  0  0  0  0  0  0  0
    0.4795   -8.0640    0.0000 F   0  0  0  0  0  0  0  0  0  0  0  0
    2.2900   -7.5649    0.0000 F   0  0  0  0  0  0  0  0  0  0  0  0
    0.0000   -6.2535    0.0000 F   0  0  0  0  0  0  0  0  0  0  0  0
  1  2  1  0  0  0  0 
  1  3  1  0  0  0  0 
  1  4  1  0  0  0  0 
  2  5  2  0  0  0  0 
  3  6  2  0  0  0  0 
  5  7  1  0  0  0  0 
  5  8  1  0  0  0  0 
  6  7  1  0  0  0  0 
  6  9  1  0  0  0  0 
  7 10  2  0  0  0  0 
  8 11  2  0  0  0  0 
  8 12  1  0  0  0  0 
  9 13  2  0  0  0  0 
  9 14  1  0  0  0  0 
 11 15  1  0  0  0  0 
 12 16  2  0  0  0  0 
 13 17  1  0  0  0  0 
 14 18  2  0  0  0  0 
 15 19  2  0  0  0  0 
 15 20  1  0  0  0  0 
 16 19  1  0  0  0  0 
 17 21  2  0  0  0  0 
 18 21  1  0  0  0  0 
 20 22  1  0  0  0  0 
 20 23  1  0  0  0  0 
 20 24  1  0  0  0  0 
M  END
> <Name>
4(1H)-Pyridinone, 1-methyl-3-phenyl-5-(3-(trifluoromethyl)phenyl)-

> <Source>
DSSTox2DMolFile

> <Tox>
4.175

> <CAS>
59756-60-4

$$$$

  CDK

 17 17  0  0  0  0  0  0  0  0999 V2000
    5.9881   -3.4531    0.0000 C   0  0  0  0  0  0  0  0  0  0  0  0
    6.6568   -2.3054    0.0000 C   0  0  0  0  0  0  0  0  0  0  0  0
    6.6568   -4.6108    0.0000 C   0  0  0  0  0  0  0  0  0  0  0  0
    7.9841   -2.3054    0.0000 C   0  0  0  0  0  0  0  0  0  0  0  0
    7.9841   -4.6108    0.0000 C   0  0  0  0  0  0  0  0  0  0  0  0
    5.9881   -5.7586    0.0000 O   0  0  0  0  0  0  0  0  0  0  0  0
    8.6528   -1.1477    0.0000 C   0  0  0  0  0  0  0  0  0  0  0  0
    8.6528   -3.4531    0.0000 C   0  0  0  0  0  0  0  0  0  0  0  0
    8.6528   -5.7586    0.0000 O   0  0  0  0  0  0  0  0  0  0  0  0
    4.6607   -5.7586    0.0000 C   0  0  0  0  0  0  0  0  0  0  0  0
    7.9841   -0.0000    0.0000 O   0  0  0  0  0  0  0  0  0  0  0  0
    9.9802   -5.7586    0.0000 C   0  0  0  0  0  0  0  0  0  0  0  0
    3.9921   -4.6108    0.0000 C   0  0  0  0  0  0  0  0  0  0  0  0
    2.6647   -4.6108    0.0000 C   0  0  0  0  0  0  0  0  0  0  0  0
    1.9960   -3.4531    0.0000 C   0  0  0  0  0  0  0  0  0  0  0  0
    0.6687   -3.4531    0.0000 C   0  0  0  0  0  0  0  0  0  0  0  0
    0.0000   -2.3054    0.0000 C   0  0  0  0  0  0  0  0  0  0  0  0
  1  2  2  0  0  0  0 
  1  3  1  0  0  0  0 
  2  4  1  0  0  0  0 
  5  3  2  0  0  0  0 
  3  6  1  0  0  0  0 
  4  7  1  0  0  0  0 
  4  8  2  0  0  0  0 
  8  5  1  0  0  0  0 
  5  9  1  0  0  0  0 
  6 10  1  0  0  0  0 
  7 11  2  0  0  0  0 
  9 12  1  0  0  0  0 
 10 13  1  0  0  0  0 
 13 14  1  0  0  0  0 
 14 15  1  0  0  0  0 
 15 16  1  0  0  0  0 
 16 17  1  0  0  0  0 
M  END
> <Name>
4-(hexyloxy)-3-(methyloxy)benzaldehyde

> <Source>
DSSTox2DMolFile

> <Tox>
4.947

> <CAS>
61096-84-2

$$$$

  CDK

 35 37  0  0  0  0  0  0  0  0999 V2000
    3.2732   -5.7730    0.0000 C   0  0  0  0  0  0  0  0  0  0  0  0
    4.6129   -5.7730    0.0000 N   0  0  0  0  0  0  0  0  0  0  0  0
    2.5965   -4.6129    0.0000 N   0  0  0  0  0  0  0  0  0  0  0  0
    2.5965   -6.9056    0.0000 N   0  0  0  0  0  0  0  0  0  0  0  0
    5.2897   -6.9056    0.0000 N   0  0  0  0  0  0  0  0  0  0  0  0
    1.2430   -4.6129    0.0000 C   0  0  0  0  0  0  0  0  0  0  0  0
    1.2430   -6.9056    0.0000 C   0  0  0  0  0  0  0  0  0  0  0  0
    6.6017   -6.9056    0.0000 C   0  0  0  0  0  0  0  0  0  0  0  0
    0.5939   -5.7730    0.0000 C   0  0  0  0  0  0  0  0  0  0  0  0
    7.2646   -5.7730    0.0000 C   0  0  0  0  0  0  0  0  0  0  0  0
    7.2646   -8.0657    0.0000 C   0  0  0  0  0  0  0  0  0  0  0  0
    0.0000   -4.6958    0.0000 C   0  0  0  0  0  0  0  0  0  0  0  0
    0.0138   -6.8641    0.0000 C   0  0  0  0  0  0  0  0  0  0  0  0
    8.6181   -5.7730    0.0000 C   0  0  0  0  0  0  0  0  0  0  0  0
    8.6181   -8.0657    0.0000 C   0  0  0  0  0  0  0  0  0  0  0  0
    9.2949   -4.6129    0.0000 C   0  0  0  0  0  0  0  0  0  0  0  0
    9.2949   -9.1982    0.0000 C   0  0  0  0  0  0  0  0  0  0  0  0
   10.6208   -4.6129    0.0000 C   0  0  0  0  0  0  0  0  0  0  0  0
    8.6181   -3.4666    0.0000 C   0  0  0  0  0  0  0  0  0  0  0  0
   10.6208   -9.1982    0.0000 C   0  0  0  0  0  0  0  0  0  0  0  0
    8.6181  -10.3445    0.0000 C   0  0  0  0  0  0  0  0  0  0  0  0
   11.2975   -3.4666    0.0000 C   0  0  0  0  0  0  0  0  0  0  0  0
    9.2949   -2.3203    0.0000 C   0  0  0  0  0  0  0  0  0  0  0  0
   11.2975  -10.3445    0.0000 C   0  0  0  0  0  0  0  0  0  0  0  0
    9.2949  -11.4909    0.0000 C   0  0  0  0  0  0  0  0  0  0  0  0
   10.6208   -2.3203    0.0000 C   0  0  0  0  0  0  0  0  0  0  0  0
   10.6208  -11.4909    0.0000 C   0  0  0  0  0  0  0  0  0  0  0  0
   11.2975   -1.1325    0.0000 C   0  0  0  0  0  0  0  0  0  0  0  0
   11.2975  -12.6786    0.0000 C   0  0  0  0  0  0  0  0  0  0  0  0
   12.4714   -1.8369    0.0000 F   0  0  0  0  0  0  0  0  0  0  0  0
   10.1374   -0.4834    0.0000 F   0  0  0  0  0  0  0  0  0  0  0  0
   12.0019   -0.0000    0.0000 F   0  0  0  0  0  0  0  0  0  0  0  0
   12.4714  -11.9742    0.0000 F   0  0  0  0  0  0  0  0  0  0  0  0
   12.0019  -13.8111    0.0000 F   0  0  0  0  0  0  0  0  0  0  0  0
   10.1374  -13.3277    0.0000 F   0  0  0  0  0  0  0  0  0  0  0  0
  1  2  2  0  0  0  0 
  1  3  1  0  0  0  0 
  1  4  1  0  0  0  0 
  2  5  1  0  0  0  0 
  3  6  1  0  0  0  0 
  4  7  1  0  0  0  0 
  5  8  2  0  0  0  0 
  9  6  1  0  0  0  0 
  9  7  1  0  0  0  0 
 10  8  1  0  0  0  0 
 11  8  1  0  0  0  0 
  9 12  1  0  0  0  0 
  9 13  1  0  0  0  0 
 10 14  2  0  0  0  0 
 11 15  2  0  0  0  0 
 14 16  1  0  0  0  0 
 15 17  1  0  0  0  0 
 16 18  1  0  0  0  0 
 16 19  2  0  0  0  0 
 17 20  2  0  0  0  0 
 17 21  1  0  0  0  0 
 22 18  2  0  0  0  0 
 23 19  1  0  0  0  0 
 24 20  1  0  0  0  0 
 25 21  2  0  0  0  0 
 26 22  1  0  0  0  0 
 26 23  2  0  0  0  0 
 27 24  2  0  0  0  0 
 27 25  1  0  0  0  0 
 28 26  1  0  0  0  0 
 29 27  1  0  0  0  0 
 28 30  1  0  0  0  0 
 28 31  1  0  0  0  0 
 28 32  1  0  0  0  0 
 29 33  1  0  0  0  0 
 29 34  1  0  0  0  0 
 29 35  1  0  0  0  0 
M  END
> <Name>
2(1H)-Pyrimidinone, tetrahydro-5,5-dimethyl-, (3-(4-(trifluoromethyl)phenyl)-1-(2-(4-(trifluoromethyl)phenyl)ethenyl)-2-propenylidene)hydrazone

> <Source>
DSSTox2DMolFile

> <Tox>
6.819

> <CAS>
67485-29-4

$$$$
