
  CDK

 17 18  0  0  0  0  0  0  0  0999 V2000
    2.3044   -0.0000    0.0000 O   0  0  0  0  0  0  0  0  0  0  0  0
    2.3044   -1.3295    0.0000 C   0  0  0  0  0  0  0  0  0  0  0  0
    3.4567   -1.9942    0.0000 C   0  0  0  0  0  0  0  0  0  0  0  0
    1.1522   -1.9942    0.0000 N   0  0  0  0  0  0  0  0  0  0  0  0
    4.7640   -2.2232    0.0000 C   0  0  0  0  0  0  0  0  0  0  0  0
    3.4567   -3.3237    0.0000 C   0  0  0  0  0  0  0  0  0  0  0  0
    3.9146   -0.7460    0.0000 C   0  0  0  0  0  0  0  0  0  0  0  0
    1.1522   -3.3237    0.0000 C   0  0  0  0  0  0  0  0  0  0  0  0
    5.6208   -1.2039    0.0000 C   0  0  0  0  0  0  0  0  0  0  0  0
    5.2219   -3.4714    0.0000 C   0  0  0  0  0  0  0  0  0  0  0  0
    4.6089   -3.9884    0.0000 O   0  0  0  0  0  0  0  0  0  0  0  0
    2.3044   -3.9884    0.0000 N   0  0  0  0  0  0  0  0  0  0  0  0
    5.2219   -0.5096    0.0000 C   0  0  0  0  0  0  0  0  0  0  0  0
    0.0000   -3.9884    0.0000 O   0  0  0  0  0  0  0  0  0  0  0  0
    6.9281   -1.4329    0.0000 C   0  0  0  0  0  0  0  0  0  0  0  0
    6.5292   -3.7078    0.0000 C   0  0  0  0  0  0  0  0  0  0  0  0
    7.3860   -2.6885    0.0000 C   0  0  0  0  0  0  0  0  0  0  0  0
  1  2  2  0  0  0  0 
  2  3  1  0  0  0  0 
  2  4  1  0  0  0  0 
  3  5  1  0  0  0  0 
  3  6  1  0  0  0  0 
  3  7  1  0  0  0  0 
  8  4  1  0  0  0  0 
  5  9  2  0  0  0  0 
  5 10  1  0  0  0  0 
  6 11  2  0  0  0  0 
  6 12  1  0  0  0  0 
  7 13  1  0  0  0  0 
 12  8  1  0  0  0  0 
  8 14  2  0  0  0  0 
  9 15  1  0  0  0  0 
 16 10  2  0  0  0  0 
 15 17  2  0  0  0  0 
 17 16  1  0  0  0  0 
M  END
> <Name>
2,4,6(1H,3H,5H)-Pyrimidinetrione, 5-ethyl-5-phenyl-

> <Source>
DSSTox2DMolFile

> <Tox>
2.681

> <CAS>
50-06-6

$$$$

  CDK

 19 20  0  0  0  0  0  0  0  0999 V2000
    3.2800   -1.3268    0.0000 Cl  0  0  0  0  0  0  0  0  0  0  0  0
    4.6068   -1.3268    0.0000 C   0  0  0  0  0  0  0  0  0  0  0  0
    4.6068   -2.6535    0.0000 C   0  0  0  0  0  0  0  0  0  0  0  0
    4.6068   -0.0000    0.0000 Cl  0  0  0  0  0  0  0  0  0  0  0  0
    5.9336   -1.3268    0.0000 Cl  0  0  0  0  0  0  0  0  0  0  0  0
    5.7585   -3.3169    0.0000 C   0  0  0  0  0  0  0  0  0  0  0  0
    3.4551   -3.3169    0.0000 C   0  0  0  0  0  0  0  0  0  0  0  0
    6.9102   -2.6535    0.0000 C   0  0  0  0  0  0  0  0  0  0  0  0
    5.7585   -4.6529    0.0000 C   0  0  0  0  0  0  0  0  0  0  0  0
    3.4551   -4.6529    0.0000 C   0  0  0  0  0  0  0  0  0  0  0  0
    2.3034   -2.6535    0.0000 C   0  0  0  0  0  0  0  0  0  0  0  0
    8.0619   -3.3169    0.0000 C   0  0  0  0  0  0  0  0  0  0  0  0
    6.9102   -5.3162    0.0000 C   0  0  0  0  0  0  0  0  0  0  0  0
    2.3034   -5.3162    0.0000 C   0  0  0  0  0  0  0  0  0  0  0  0
    1.1517   -3.3169    0.0000 C   0  0  0  0  0  0  0  0  0  0  0  0
    8.0619   -4.6529    0.0000 C   0  0  0  0  0  0  0  0  0  0  0  0
    1.1517   -4.6529    0.0000 C   0  0  0  0  0  0  0  0  0  0  0  0
    9.2136   -5.3162    0.0000 Cl  0  0  0  0  0  0  0  0  0  0  0  0
    0.0000   -5.3162    0.0000 Cl  0  0  0  0  0  0  0  0  0  0  0  0
  1  2  1  0  0  0  0 
  2  3  1  0  0  0  0 
  2  4  1  0  0  0  0 
  2  5  1  0  0  0  0 
  3  6  1  0  0  0  0 
  3  7  1  0  0  0  0 
  6  8  2  0  0  0  0 
  6  9  1  0  0  0  0 
  7 10  2  0  0  0  0 
  7 11  1  0  0  0  0 
  8 12  1  0  0  0  0 
 13  9  2  0  0  0  0 
 10 14  1  0  0  0  0 
 15 11  2  0  0  0  0 
 12 16  2  0  0  0  0 
 16 13  1  0  0  0  0 
 14 17  2  0  0  0  0 
 17 15  1  0  0  0  0 
 16 18  1  0  0  0  0 
 17 19  1  0  0  0  0 
M  END
> <Name>
Benzene, 1,1'-(2,2,2-trichloroethylidene)bis(4-chloro-

> <Source>
DSSTox2DMolFile

> <Tox>
7.271

> <CAS>
50-29-3

$$$$

  CDK

 12 12  0  0  0  0  0  0  0  0999 V2000
    1.5225   -1.4118    0.0000 C   0  0  0  0  0  0  0  0  0  0  0  0
    0.6485   -0.2114    0.0000 C   0  0  0  0  0  0  0  0  0  0  0  0
    2.7413   -1.4667    0.0003 O   0  0  0  0  0  0  0  0  0  0  0  0
    0.9266   -2.6277   -0.0003 O   0  0  0  0  0  0  0  0  0  0  0  0
   -0.7535   -0.2983    0.0000 C   0  0  0  0  0  0  0  0  0  0  0  0
    1.2329    1.0660    0.0000 C   0  0  0  0  0  0  0  0  0  0  0  0
   -1.5304    0.8644    0.0000 C   0  0  0  0  0  0  0  0  0  0  0  0
   -1.5820   -1.7551    0.0001 Cl  0  0  0  0  0  0  0  0  0  0  0  0
    0.4446    2.2198    0.0000 C   0  0  0  0  0  0  0  0  0  0  0  0
    2.8946    1.3009   -0.0001 Cl  0  0  0  0  0  0  0  0  0  0  0  0
   -0.9373    2.1238    0.0000 C   0  0  0  0  0  0  0  0  0  0  0  0
   -3.2080    0.7443    0.0000 Cl  0  0  0  0  0  0  0  0  0  0  0  0
  1  2  1  0  0  0  0 
  1  3  2  0  0  0  0 
  1  4  1  0  0  0  0 
  2  5  1  0  0  0  0 
  2  6  2  0  0  0  0 
  5  7  2  0  0  0  0 
  5  8  1  0  0  0  0 
  9  6  1  0  0  0  0 
  6 10  1  0  0  0  0 
  7 11  1  0  0  0  0 
  7 12  1  0  0  0  0 
 11  9  2  0  0  0  0 
M  END
> <Name>
Benzoic acid, 2,3,6-trichloro-

> <Source>
DougDB3DMolFile

> <Tox>
4.424

> <CAS>
50-31-7

$$$$

  CDK

 13 13  0  0  0  0  0  0  0  0999 V2000
    5.7563   -0.0000    0.0000 O   0  0  0  0  0  0  0  0  0  0  0  0
    4.6092   -0.6634    0.0000 C   0  0  0  0  0  0  0  0  0  0  0  0
    4.6092   -1.9902    0.0000 C   0  0  0  0  0  0  0  0  0  0  0  0
    3.4552   -0.0000    0.0000 C   0  0  0  0  0  0  0  0  0  0  0  0
    3.4552   -2.6605    0.0000 C   0  0  0  0  0  0  0  0  0  0  0  0
    5.7563   -2.6605    0.0000 N   0  0  0  0  0  0  0  0  0  0  0  0
    2.3011   -0.6634    0.0000 C   0  0  0  0  0  0  0  0  0  0  0  0
    2.3011   -1.9902    0.0000 C   0  0  0  0  0  0  0  0  0  0  0  0
    5.7563   -3.9873    0.0000 O   0  0  0  0  0  0  0  0  0  0  0  0
    6.9103   -1.9902    0.0000 O   0  0  0  0  0  0  0  0  0  0  0  0
    1.1540   -2.6605    0.0000 N   0  0  0  0  0  0  0  0  0  0  0  0
    1.1540   -3.9873    0.0000 O   0  0  0  0  0  0  0  0  0  0  0  0
    0.0000   -1.9902    0.0000 O   0  0  0  0  0  0  0  0  0  0  0  0
  1  2  1  0  0  0  0 
  2  3  2  0  0  0  0 
  2  4  1  0  0  0  0 
  3  5  1  0  0  0  0 
  3  6  1  0  0  0  0 
  7  4  2  0  0  0  0 
  5  8  2  0  0  0  0 
  6  9  2  0  0  0  0 
  6 10  1  0  0  0  0 
  8  7  1  0  0  0  0 
  8 11  1  0  0  0  0 
 11 12  2  0  0  0  0 
 11 13  1  0  0  0  0 
M  CHG  1   6   1
M  CHG  1  10  -1
M  CHG  1  11   1
M  CHG  1  13  -1
M  END
> <Name>
Phenol, 2,4-dinitro-

> <Source>
DSSTox2DMolFile

> <Tox>
4.224

> <CAS>
51-28-5

$$$$

  CDK

  6  5  0  0  0  0  0  0  0  0999 V2000
    4.6084   -1.9954    0.0000 N   0  0  0  0  0  0  0  0  0  0  0  0
    3.4563   -1.3318    0.0000 C   0  0  0  0  0  0  0  0  0  0  0  0
    3.4563   -0.0000    0.0000 O   0  0  0  0  0  0  0  0  0  0  0  0
    2.3042   -1.9954    0.0000 O   0  0  0  0  0  0  0  0  0  0  0  0
    1.1521   -1.3318    0.0000 C   0  0  0  0  0  0  0  0  0  0  0  0
    0.0000   -1.9954    0.0000 C   0  0  0  0  0  0  0  0  0  0  0  0
  1  2  1  0  0  0  0 
  2  3  2  0  0  0  0 
  2  4  1  0  0  0  0 
  4  5  1  0  0  0  0 
  5  6  1  0  0  0  0 
M  END
> <Name>
Carbamic acid, ethyl ester

> <Source>
DSSTox2DMolFile

> <Tox>
1.231

> <CAS>
51-79-6

$$$$

  CDK

 12 11  0  0  0  0  0  0  0  0999 V2000
    1.3266   -1.9854    0.0000 P   0  0  0  0  0  0  0  0  0  0  0  0
    2.6577   -1.9854    0.0000 C   0  0  0  0  0  0  0  0  0  0  0  0
    0.0000   -1.9854    0.0000 O   0  0  0  0  0  0  0  0  0  0  0  0
    1.3266   -3.3120    0.0000 O   0  0  0  0  0  0  0  0  0  0  0  0
    1.3266   -0.6543    0.0000 O   0  0  0  0  0  0  0  0  0  0  0  0
    3.3299   -3.1372    0.0000 C   0  0  0  0  0  0  0  0  0  0  0  0
    3.3120   -0.8336    0.0000 O   0  0  0  0  0  0  0  0  0  0  0  0
    0.1748   -3.9708    0.0000 C   0  0  0  0  0  0  0  0  0  0  0  0
    2.4829   -0.0000    0.0000 C   0  0  0  0  0  0  0  0  0  0  0  0
    4.4817   -2.4649    0.0000 Cl  0  0  0  0  0  0  0  0  0  0  0  0
    4.0022   -4.2890    0.0000 Cl  0  0  0  0  0  0  0  0  0  0  0  0
    2.1781   -3.8095    0.0000 Cl  0  0  0  0  0  0  0  0  0  0  0  0
  1  2  1  0  0  0  0 
  1  3  2  0  0  0  0 
  1  4  1  0  0  0  0 
  1  5  1  0  0  0  0 
  2  6  1  0  0  0  0 
  2  7  1  0  0  0  0 
  4  8  1  0  0  0  0 
  5  9  1  0  0  0  0 
  6 10  1  0  0  0  0 
  6 11  1  0  0  0  0 
  6 12  1  0  0  0  0 
M  END
> <Name>
Phosphonic acid, (2,2,2-trichloro-1-hydroxyethyl)-, dimethyl ester

> <Source>
DSSTox2DMolFile

> <Tox>
3.373

> <CAS>
52-68-6

$$$$

  CDK

  7  6  0  0  0  0  0  0  0  0999 V2000
    3.9928   -0.0000    0.0000 C   0  0  0  0  0  0  0  0  0  0  0  0
    2.6632   -0.0000    0.0000 C   0  0  0  0  0  0  0  0  0  0  0  0
    1.9964   -1.1499    0.0000 N   0  0  0  0  0  0  0  0  0  0  0  0
    2.6632   -2.3038    0.0000 C   0  0  0  0  0  0  0  0  0  0  0  0
    0.6668   -1.1499    0.0000 N   0  0  0  0  0  0  0  0  0  0  0  0
    3.9928   -2.3038    0.0000 C   0  0  0  0  0  0  0  0  0  0  0  0
    0.0000   -0.0000    0.0000 O   0  0  0  0  0  0  0  0  0  0  0  0
  1  2  1  0  0  0  0 
  2  3  1  0  0  0  0 
  3  4  1  0  0  0  0 
  3  5  1  0  0  0  0 
  4  6  1  0  0  0  0 
  5  7  2  0  0  0  0 
M  END
> <Name>
Ethanamine, N-ethyl-N-nitroso-

> <Source>
DSSTox2DMolFile

> <Tox>
2.120

> <CAS>
55-18-5

$$$$

  CDK

  9  9  0  0  0  0  0  0  0  0999 V2000
    2.6574   -0.0000    0.0000 C   0  0  0  0  0  0  0  0  0  0  0  0
    3.9884   -0.0000    0.0000 C   0  0  0  0  0  0  0  0  0  0  0  0
    1.9965   -1.1542    0.0000 C   0  0  0  0  0  0  0  0  0  0  0  0
    4.6539   -1.1542    0.0000 C   0  0  0  0  0  0  0  0  0  0  0  0
    2.6574   -2.3037    0.0000 C   0  0  0  0  0  0  0  0  0  0  0  0
    0.6655   -1.1542    0.0000 C   0  0  0  0  0  0  0  0  0  0  0  0
    3.9884   -2.3037    0.0000 C   0  0  0  0  0  0  0  0  0  0  0  0
    0.0000   -2.3037    0.0000 O   0  0  0  0  0  0  0  0  0  0  0  0
    0.0000   -0.0000    0.0000 N   0  0  0  0  0  0  0  0  0  0  0  0
  1  2  2  0  0  0  0 
  1  3  1  0  0  0  0 
  2  4  1  0  0  0  0 
  5  3  2  0  0  0  0 
  3  6  1  0  0  0  0 
  4  7  2  0  0  0  0 
  7  5  1  0  0  0  0 
  6  8  2  0  0  0  0 
  6  9  1  0  0  0  0 
M  END
> <Name>
Benzamide

> <Source>
DSSTox2DMolFile

> <Tox>
2.263

> <CAS>
55-21-0

$$$$

  CDK

 16 16  0  0  0  0  0  0  0  0999 V2000
    7.5738   -3.4552    0.0000 S   0  0  0  0  0  0  0  0  0  0  0  0
    6.9104   -2.3035    0.0000 P   0  0  0  0  0  0  0  0  0  0  0  0
    5.7587   -2.9669    0.0000 O   0  0  0  0  0  0  0  0  0  0  0  0
    6.2470   -1.1517    0.0000 O   0  0  0  0  0  0  0  0  0  0  0  0
    8.0622   -1.6401    0.0000 O   0  0  0  0  0  0  0  0  0  0  0  0
    4.6070   -2.3035    0.0000 C   0  0  0  0  0  0  0  0  0  0  0  0
    6.9104   -0.0000    0.0000 C   0  0  0  0  0  0  0  0  0  0  0  0
    9.2139   -2.3035    0.0000 C   0  0  0  0  0  0  0  0  0  0  0  0
    3.4552   -2.9669    0.0000 C   0  0  0  0  0  0  0  0  0  0  0  0
    4.6070   -0.9767    0.0000 C   0  0  0  0  0  0  0  0  0  0  0  0
    2.3035   -2.3035    0.0000 C   0  0  0  0  0  0  0  0  0  0  0  0
    3.4552   -0.3041    0.0000 C   0  0  0  0  0  0  0  0  0  0  0  0
    2.3035   -0.9767    0.0000 C   0  0  0  0  0  0  0  0  0  0  0  0
    1.1517   -2.9669    0.0000 C   0  0  0  0  0  0  0  0  0  0  0  0
    1.1517   -0.3041    0.0000 S   0  0  0  0  0  0  0  0  0  0  0  0
    0.0000   -0.9767    0.0000 C   0  0  0  0  0  0  0  0  0  0  0  0
  1  2  2  0  0  0  0 
  2  3  1  0  0  0  0 
  2  4  1  0  0  0  0 
  2  5  1  0  0  0  0 
  3  6  1  0  0  0  0 
  4  7  1  0  0  0  0 
  5  8  1  0  0  0  0 
  6  9  2  0  0  0  0 
  6 10  1  0  0  0  0 
  9 11  1  0  0  0  0 
 12 10  2  0  0  0  0 
 11 13  2  0  0  0  0 
 11 14  1  0  0  0  0 
 13 12  1  0  0  0  0 
 13 15  1  0  0  0  0 
 15 16  1  0  0  0  0 
M  END
> <Name>
Phosphorothioic acid, O,O-dimethyl O-(3-methyl-4-(methylthio)phenyl) ester

> <Source>
DSSTox2DMolFile

> <Tox>
4.939

> <CAS>
55-38-9

$$$$

  CDK

 15 14  0  0  0  0  0  0  0  0999 V2000
    5.7539   -0.0000    0.0000 O   0  0  0  0  0  0  0  0  0  0  0  0
    5.7539   -1.3257    0.0000 N   0  0  0  0  0  0  0  0  0  0  0  0
    4.6031   -1.9885    0.0000 O   0  0  0  0  0  0  0  0  0  0  0  0
    6.9047   -1.9885    0.0000 O   0  0  0  0  0  0  0  0  0  0  0  0
    4.6031   -3.3142    0.0000 C   0  0  0  0  0  0  0  0  0  0  0  0
    5.7539   -3.9863    0.0000 C   0  0  0  0  0  0  0  0  0  0  0  0
    3.4523   -3.9863    0.0000 C   0  0  0  0  0  0  0  0  0  0  0  0
    6.9047   -3.3142    0.0000 O   0  0  0  0  0  0  0  0  0  0  0  0
    2.3016   -3.3142    0.0000 O   0  0  0  0  0  0  0  0  0  0  0  0
    8.0554   -3.9863    0.0000 N   0  0  0  0  0  0  0  0  0  0  0  0
    1.1508   -3.9863    0.0000 N   0  0  0  0  0  0  0  0  0  0  0  0
    8.0554   -5.3120    0.0000 O   0  0  0  0  0  0  0  0  0  0  0  0
    9.2062   -3.3142    0.0000 O   0  0  0  0  0  0  0  0  0  0  0  0
    1.1508   -5.3120    0.0000 O   0  0  0  0  0  0  0  0  0  0  0  0
    0.0000   -3.3142    0.0000 O   0  0  0  0  0  0  0  0  0  0  0  0
  1  2  2  0  0  0  0 
  2  3  1  0  0  0  0 
  2  4  1  0  0  0  0 
  3  5  1  0  0  0  0 
  5  6  1  0  0  0  0 
  5  7  1  0  0  0  0 
  6  8  1  0  0  0  0 
  7  9  1  0  0  0  0 
  8 10  1  0  0  0  0 
  9 11  1  0  0  0  0 
 10 12  2  0  0  0  0 
 10 13  1  0  0  0  0 
 11 14  2  0  0  0  0 
 11 15  1  0  0  0  0 
M  CHG  1   2   1
M  CHG  1   4  -1
M  CHG  1  10   1
M  CHG  1  11   1
M  CHG  1  13  -1
M  CHG  1  15  -1
M  END
> <Name>
1,2,3-Propanetriol, trinitrate

> <Source>
DSSTox2DMolFile

> <Tox>
4.919

> <CAS>
55-63-0

$$$$

  CDK

  5  4  0  0  0  0  0  0  0  0999 V2000
    1.3300   -2.6600    0.0000 Cl  0  0  0  0  0  0  0  0  0  0  0  0
    1.3300   -1.3300    0.0000 C   0  0  0  0  0  0  0  0  0  0  0  0
    0.0000   -1.3300    0.0000 Cl  0  0  0  0  0  0  0  0  0  0  0  0
    1.3300   -0.0000    0.0000 Cl  0  0  0  0  0  0  0  0  0  0  0  0
    2.6600   -1.3300    0.0000 Cl  0  0  0  0  0  0  0  0  0  0  0  0
  1  2  1  0  0  0  0 
  2  3  1  0  0  0  0 
  2  4  1  0  0  0  0 
  2  5  1  0  0  0  0 
M  END
> <Name>
Methane, tetrachloro-

> <Source>
DSSTox2DMolFile

> <Tox>
3.570

> <CAS>
56-23-5

$$$$

  CDK

 18 18  0  0  0  0  0  0  0  0999 V2000
    5.5046   -3.3251    0.0000 S   0  0  0  0  0  0  0  0  0  0  0  0
    6.6502   -2.6545    0.0000 P   0  0  0  0  0  0  0  0  0  0  0  0
    5.9889   -1.5089    0.0000 O   0  0  0  0  0  0  0  0  0  0  0  0
    7.8051   -1.9932    0.0000 O   0  0  0  0  0  0  0  0  0  0  0  0
    7.3208   -3.8094    0.0000 O   0  0  0  0  0  0  0  0  0  0  0  0
    4.6570   -1.5089    0.0000 C   0  0  0  0  0  0  0  0  0  0  0  0
    7.8051   -0.6613    0.0000 C   0  0  0  0  0  0  0  0  0  0  0  0
    8.6527   -3.8094    0.0000 C   0  0  0  0  0  0  0  0  0  0  0  0
    3.9957   -2.6545    0.0000 C   0  0  0  0  0  0  0  0  0  0  0  0
    3.9957   -0.3539    0.0000 C   0  0  0  0  0  0  0  0  0  0  0  0
    8.9601   -0.0000    0.0000 C   0  0  0  0  0  0  0  0  0  0  0  0
    9.3140   -2.6545    0.0000 C   0  0  0  0  0  0  0  0  0  0  0  0
    2.6638   -2.6545    0.0000 C   0  0  0  0  0  0  0  0  0  0  0  0
    2.6638   -0.3539    0.0000 C   0  0  0  0  0  0  0  0  0  0  0  0
    1.9932   -1.5089    0.0000 C   0  0  0  0  0  0  0  0  0  0  0  0
    0.6613   -1.5089    0.0000 N   0  0  0  0  0  0  0  0  0  0  0  0
    0.0000   -2.6545    0.0000 O   0  0  0  0  0  0  0  0  0  0  0  0
    0.0000   -0.3539    0.0000 O   0  0  0  0  0  0  0  0  0  0  0  0
  1  2  2  0  0  0  0 
  2  3  1  0  0  0  0 
  2  4  1  0  0  0  0 
  2  5  1  0  0  0  0 
  3  6  1  0  0  0  0 
  4  7  1  0  0  0  0 
  5  8  1  0  0  0  0 
  6  9  2  0  0  0  0 
  6 10  1  0  0  0  0 
  7 11  1  0  0  0  0 
  8 12  1  0  0  0  0 
  9 13  1  0  0  0  0 
 14 10  2  0  0  0  0 
 13 15  2  0  0  0  0 
 15 14  1  0  0  0  0 
 15 16  1  0  0  0  0 
 16 17  2  0  0  0  0 
 16 18  1  0  0  0  0 
M  CHG  1  16   1
M  CHG  1  18  -1
M  END
> <Name>
Phosphorothioic acid, O,O-diethyl O-(4-nitrophenyl) ester

> <Source>
DSSTox2DMolFile

> <Tox>
5.315

> <CAS>
56-38-2

$$$$

  CDK

  6  5  0  0  0  0  0  0  0  0999 V2000
    0.0000   -0.6684    0.0000 C   0  0  0  0  0  0  0  0  0  0  0  0
    1.1525   -1.3311    0.0000 C   0  0  0  0  0  0  0  0  0  0  0  0
    2.3050   -0.6684    0.0000 C   0  0  0  0  0  0  0  0  0  0  0  0
    3.4575   -1.3311    0.0000 N   0  0  0  0  0  0  0  0  0  0  0  0
    4.6099   -0.6684    0.0000 C   0  0  0  0  0  0  0  0  0  0  0  0
    5.7624   -0.0000    0.0000 S   0  0  0  0  0  0  0  0  0  0  0  0
  1  2  2  0  0  0  0 
  2  3  1  0  0  0  0 
  3  4  1  0  0  0  0 
  4  5  2  0  0  0  0 
  5  6  2  0  0  0  0 
M  END
> <Name>
Isothiocyanic acid, allyl ester

> <Source>
DSSTox2DMolFile

> <Tox>
6.064

> <CAS>
57-06-7

$$$$

  CDK

  4  3  0  0  0  0  0  0  0  0999 V2000
    1.9950   -0.0000    0.0000 C   0  0  0  0  0  0  0  0  0  0  0  0
    1.3292   -1.1518    0.0000 N   0  0  0  0  0  0  0  0  0  0  0  0
    1.9950   -2.3037    0.0000 C   0  0  0  0  0  0  0  0  0  0  0  0
    0.0000   -1.1518    0.0000 N   0  0  0  0  0  0  0  0  0  0  0  0
  1  2  1  0  0  0  0 
  2  3  1  0  0  0  0 
  2  4  1  0  0  0  0 
M  END
> <Name>
Hydrazine, 1,1-dimethyl-

> <Source>
DSSTox2DMolFile

> <Tox>
3.884

> <CAS>
57-14-7

$$$$

  CDK

  8  7  0  0  0  0  0  0  0  0999 V2000
    0.2650    0.0000    0.0048 C   0  0  0  0  0  0  0  0  0  0  0  0
   -1.2757    0.0001   -0.0124 C   0  0  0  0  0  0  0  0  0  0  0  0
    0.8749    0.0030    1.6615 Cl  0  0  0  0  0  0  0  0  0  0  0  0
    0.9148    1.4183   -0.8029 Cl  0  0  0  0  0  0  0  0  0  0  0  0
    0.9146   -1.4213   -0.7977 Cl  0  0  0  0  0  0  0  0  0  0  0  0
   -1.8128   -1.2538    0.6873 C   0  0  0  0  0  0  0  0  0  0  0  0
   -1.6133   -0.0033   -1.3936 O   0  0  0  0  0  0  0  0  0  0  0  0
   -1.8126    1.2574    0.6812 C   0  0  0  0  0  0  0  0  0  0  0  0
  1  2  1  0  0  0  0 
  1  3  1  0  0  0  0 
  1  4  1  0  0  0  0 
  1  5  1  0  0  0  0 
  2  6  1  0  0  0  0 
  2  7  1  0  0  0  0 
  2  8  1  0  0  0  0 
M  END
> <Name>
2-Propanol, 1,1,1-trichloro-2-methyl-

> <Source>
DougDB3DMolFile

> <Tox>
3.119

> <CAS>
57-15-8

$$$$

  CDK

 16 16  0  0  0  0  0  0  0  0999 V2000
    3.1752   -3.9923    0.0000 O   0  0  0  0  0  0  0  0  0  0  0  0
    4.3269   -3.3308    0.0000 C   0  0  0  0  0  0  0  0  0  0  0  0
    4.3269   -2.0000    0.0000 C   0  0  0  0  0  0  0  0  0  0  0  0
    5.4787   -3.9923    0.0000 N   0  0  0  0  0  0  0  0  0  0  0  0
    5.4787   -1.3308    0.0000 C   0  0  0  0  0  0  0  0  0  0  0  0
    3.0195   -2.2257    0.0000 C   0  0  0  0  0  0  0  0  0  0  0  0
    3.8756   -0.7471    0.0000 C   0  0  0  0  0  0  0  0  0  0  0  0
    6.6305   -3.3308    0.0000 C   0  0  0  0  0  0  0  0  0  0  0  0
    5.4787   -0.0000    0.0000 O   0  0  0  0  0  0  0  0  0  0  0  0
    6.6305   -2.0000    0.0000 N   0  0  0  0  0  0  0  0  0  0  0  0
    2.1635   -1.2140    0.0000 C   0  0  0  0  0  0  0  0  0  0  0  0
    2.5604   -0.5214    0.0000 C   0  0  0  0  0  0  0  0  0  0  0  0
    7.7823   -3.9923    0.0000 O   0  0  0  0  0  0  0  0  0  0  0  0
    0.8560   -1.4397    0.0000 C   0  0  0  0  0  0  0  0  0  0  0  0
    0.3969   -2.6927    0.0000 C   0  0  0  0  0  0  0  0  0  0  0  0
    0.0000   -0.4202    0.0000 C   0  0  0  0  0  0  0  0  0  0  0  0
  1  2  2  0  0  0  0 
  2  3  1  0  0  0  0 
  2  4  1  0  0  0  0 
  3  5  1  0  0  0  0 
  3  6  1  0  0  0  0 
  3  7  1  0  0  0  0 
  8  4  1  0  0  0  0 
  5  9  2  0  0  0  0 
  5 10  1  0  0  0  0 
  6 11  1  0  0  0  0 
  7 12  1  0  0  0  0 
 10  8  1  0  0  0  0 
  8 13  2  0  0  0  0 
 11 14  1  0  0  0  0 
 14 15  1  0  0  0  0 
 14 16  1  0  0  0  0 
M  END
> <Name>
2,4,6(1H,3H,5H)-Pyrimidinetrione, 5-ethyl-5-(3-methylbutyl)-

> <Source>
DSSTox2DMolFile

> <Tox>
3.423

> <CAS>
57-43-2

$$$$

  CDK

  5  4  0  0  0  0  0  0  0  0999 V2000
    3.4567   -1.9945    0.0000 C   0  0  0  0  0  0  0  0  0  0  0  0
    2.3056   -1.3308    0.0000 C   0  0  0  0  0  0  0  0  0  0  0  0
    1.1511   -1.9945    0.0000 C   0  0  0  0  0  0  0  0  0  0  0  0
    2.3056   -0.0000    0.0000 O   0  0  0  0  0  0  0  0  0  0  0  0
    0.0000   -1.3308    0.0000 O   0  0  0  0  0  0  0  0  0  0  0  0
  1  2  1  0  0  0  0 
  2  3  1  0  0  0  0 
  2  4  1  0  0  0  0 
  3  5  1  0  0  0  0 
M  END
> <Name>
1,2-Propylene glycol

> <Source>
DSSTox2DMolFile

> <Tox>
0.349

> <CAS>
57-55-6

$$$$

  CDK

 18 20  0  0  0  0  0  0  0  0999 V2000
    1.2603   -3.3292    0.0000 C   0  0  0  0  0  0  0  0  0  0  0  0
    3.2499   -2.1798    0.0000 C   0  0  0  0  0  0  0  0  0  0  0  0
    2.5445   -2.9883    0.0000 C   0  0  0  0  0  0  0  0  0  0  0  0
    0.0000   -2.4335    0.0000 Cl  0  0  0  0  0  0  0  0  0  0  0  0
    4.3755   -2.4810    0.0000 C   0  0  0  0  0  0  0  0  0  0  0  0
    3.8603   -3.3292    0.0000 C   0  0  0  0  0  0  0  0  0  0  0  0
    1.9896   -4.0584    0.0000 Cl  0  0  0  0  0  0  0  0  0  0  0  0
    5.7706   -2.1085    0.0000 C   0  0  0  0  0  0  0  0  0  0  0  0
    5.2474   -3.1707    0.0000 C   0  0  0  0  0  0  0  0  0  0  0  0
    6.8724   -2.7981    0.0000 C   0  0  0  0  0  0  0  0  0  0  0  0
    5.4456   -1.0939    0.0000 C   0  0  0  0  0  0  0  0  0  0  0  0
    6.5474   -1.2603    0.0000 Cl  0  0  0  0  0  0  0  0  0  0  0  0
    6.2620   -3.6145    0.0000 C   0  0  0  0  0  0  0  0  0  0  0  0
    4.4310   -4.2249    0.0000 Cl  0  0  0  0  0  0  0  0  0  0  0  0
    7.9266   -2.2749    0.0000 Cl  0  0  0  0  0  0  0  0  0  0  0  0
    6.0163   -0.1585    0.0000 Cl  0  0  0  0  0  0  0  0  0  0  0  0
    4.5499   -0.0000    0.0000 Cl  0  0  0  0  0  0  0  0  0  0  0  0
    6.8724   -4.5499    0.0000 Cl  0  0  0  0  0  0  0  0  0  0  0  0
  1  2  1  0  0  0  0 
  1  3  1  0  0  0  0 
  1  4  1  0  0  0  0 
  2  5  1  0  0  0  0 
  3  6  1  0  0  0  0 
  3  7  1  0  0  0  0 
  5  6  1  0  0  0  0 
  5  8  1  0  0  0  0 
  6  9  1  0  0  0  0 
  8 10  1  0  0  0  0 
  8 11  1  0  0  0  0 
  8 12  1  0  0  0  0 
 13  9  1  0  0  0  0 
  9 11  1  0  0  0  0 
  9 14  1  0  0  0  0 
 10 13  2  0  0  0  0 
 10 15  1  0  0  0  0 
 11 16  1  0  0  0  0 
 11 17  1  0  0  0  0 
 13 18  1  0  0  0  0 
M  END
> <Name>
4,7-Methano-1H-indene, 1,2,4,5,6,7,8,8-octachloro-2,3,3a,4,7,7a-hexahydro-

> <Source>
DSSTox2DMolFile

> <Tox>
6.819

> <CAS>
57-74-9

$$$$

  CDK

 13 14  0  0  0  0  0  0  0  0999 V2000
    2.3040   -5.3201    0.0000 C   0  0  0  0  0  0  0  0  0  0  0  0
    1.1490   -5.9843    0.0000 C   0  0  0  0  0  0  0  0  0  0  0  0
    2.3040   -3.9916    0.0000 C   0  0  0  0  0  0  0  0  0  0  0  0
    0.0000   -5.3201    0.0000 C   0  0  0  0  0  0  0  0  0  0  0  0
    1.1490   -3.3273    0.0000 C   0  0  0  0  0  0  0  0  0  0  0  0
    3.4530   -3.3273    0.0000 C   0  0  0  0  0  0  0  0  0  0  0  0
    0.0000   -3.9916    0.0000 C   0  0  0  0  0  0  0  0  0  0  0  0
    1.1490   -1.9928    0.0000 C   0  0  0  0  0  0  0  0  0  0  0  0
    3.4530   -1.9928    0.0000 C   0  0  0  0  0  0  0  0  0  0  0  0
    4.6079   -3.9916    0.0000 O   0  0  0  0  0  0  0  0  0  0  0  0
    0.0000   -1.3285    0.0000 O   0  0  0  0  0  0  0  0  0  0  0  0
    2.3040   -1.3285    0.0000 C   0  0  0  0  0  0  0  0  0  0  0  0
    2.3040   -0.0000    0.0000 C   0  0  0  0  0  0  0  0  0  0  0  0
  1  2  2  0  0  0  0 
  1  3  1  0  0  0  0 
  2  4  1  0  0  0  0 
  5  3  2  0  0  0  0 
  6  3  1  0  0  0  0 
  4  7  2  0  0  0  0 
  7  5  1  0  0  0  0 
  5  8  1  0  0  0  0 
  9  6  1  0  0  0  0 
  6 10  2  0  0  0  0 
  8 11  2  0  0  0  0 
  8 12  1  0  0  0  0 
 12  9  2  0  0  0  0 
 12 13  1  0  0  0  0 
M  END
> <Name>
1,4-Naphthalenedione, 2-methyl-

> <Source>
DSSTox2DMolFile

> <Tox>
6.195

> <CAS>
58-27-5

$$$$

  CDK

 12 12  0  0  0  0  0  0  0  0999 V2000
    1.1740   -3.2945    0.0000 C   0  0  0  0  0  0  0  0  0  0  0  0
    1.1740   -1.9830    0.0000 C   0  0  0  0  0  0  0  0  0  0  0  0
    2.3215   -3.9555    0.0000 C   0  0  0  0  0  0  0  0  0  0  0  0
    0.0000   -3.9766    0.0000 Cl  0  0  0  0  0  0  0  0  0  0  0  0
    2.3215   -1.3273    0.0000 C   0  0  0  0  0  0  0  0  0  0  0  0
    0.0000   -1.3009    0.0000 Cl  0  0  0  0  0  0  0  0  0  0  0  0
    3.4425   -3.2945    0.0000 C   0  0  0  0  0  0  0  0  0  0  0  0
    2.3215   -5.2881    0.0000 Cl  0  0  0  0  0  0  0  0  0  0  0  0
    3.4425   -1.9830    0.0000 C   0  0  0  0  0  0  0  0  0  0  0  0
    2.3215   -0.0000    0.0000 Cl  0  0  0  0  0  0  0  0  0  0  0  0
    4.6165   -3.9766    0.0000 Cl  0  0  0  0  0  0  0  0  0  0  0  0
    4.6165   -1.3009    0.0000 Cl  0  0  0  0  0  0  0  0  0  0  0  0
  1  2  1  0  0  0  0 
  1  3  1  0  0  0  0 
  1  4  1  1  0  0  0 
  2  5  1  0  0  0  0 
  2  6  1  6  0  0  0 
  3  7  1  0  0  0  0 
  3  8  1  1  0  0  0 
  5  9  1  0  0  0  0 
  5 10  1  1  0  0  0 
  7 11  1  6  0  0  0 
  7  9  1  0  0  0  0 
  9 12  1  1  0  0  0 
M  END
> <Name>
Cyclohexane, 1,2,3,4,5,6-hexachloro-, (1alpha,2alpha,3beta,4alpha,5alpha,6beta)-

> <Source>
DSSTox2DMolFile

> <Tox>
6.607

> <CAS>
58-89-9

$$$$

  CDK

 11 11  0  0  0  0  0  0  0  0999 V2000
    1.3317   -4.6078    0.0000 O   0  0  0  0  0  0  0  0  0  0  0  0
    1.9952   -3.4558    0.0000 C   0  0  0  0  0  0  0  0  0  0  0  0
    1.3317   -2.3039    0.0000 C   0  0  0  0  0  0  0  0  0  0  0  0
    3.3268   -3.4558    0.0000 C   0  0  0  0  0  0  0  0  0  0  0  0
    0.0000   -2.3039    0.0000 Cl  0  0  0  0  0  0  0  0  0  0  0  0
    1.9952   -1.1519    0.0000 C   0  0  0  0  0  0  0  0  0  0  0  0
    3.9904   -2.3039    0.0000 C   0  0  0  0  0  0  0  0  0  0  0  0
    3.9904   -4.6078    0.0000 Cl  0  0  0  0  0  0  0  0  0  0  0  0
    1.3317   -0.0000    0.0000 Cl  0  0  0  0  0  0  0  0  0  0  0  0
    3.3268   -1.1519    0.0000 C   0  0  0  0  0  0  0  0  0  0  0  0
    3.9904   -0.0000    0.0000 Cl  0  0  0  0  0  0  0  0  0  0  0  0
  1  2  1  0  0  0  0 
  2  3  2  0  0  0  0 
  2  4  1  0  0  0  0 
  3  5  1  0  0  0  0 
  3  6  1  0  0  0  0 
  7  4  2  0  0  0  0 
  4  8  1  0  0  0  0 
  6  9  1  0  0  0  0 
  6 10  2  0  0  0  0 
 10  7  1  0  0  0  0 
 10 11  1  0  0  0  0 
M  END
> <Name>
Phenol, 2,3,4,6-tetrachloro-

> <Source>
DSSTox2DMolFile

> <Tox>
5.352

> <CAS>
58-90-2

$$$$

  CDK

  9  9  0  0  0  0  0  0  0  0999 V2000
    4.6082   -2.6589    0.0000 O   0  0  0  0  0  0  0  0  0  0  0  0
    3.4561   -1.9953    0.0000 C   0  0  0  0  0  0  0  0  0  0  0  0
    2.3041   -2.6589    0.0000 C   0  0  0  0  0  0  0  0  0  0  0  0
    3.4561   -0.6636    0.0000 C   0  0  0  0  0  0  0  0  0  0  0  0
    1.1520   -1.9953    0.0000 C   0  0  0  0  0  0  0  0  0  0  0  0
    2.3041   -0.0000    0.0000 C   0  0  0  0  0  0  0  0  0  0  0  0
    0.0000   -2.6589    0.0000 C   0  0  0  0  0  0  0  0  0  0  0  0
    1.1520   -0.6636    0.0000 C   0  0  0  0  0  0  0  0  0  0  0  0
    0.0000   -0.0000    0.0000 Cl  0  0  0  0  0  0  0  0  0  0  0  0
  1  2  1  0  0  0  0 
  2  3  2  0  0  0  0 
  2  4  1  0  0  0  0 
  3  5  1  0  0  0  0 
  6  4  2  0  0  0  0 
  5  7  1  0  0  0  0 
  5  8  2  0  0  0  0 
  8  6  1  0  0  0  0 
  8  9  1  0  0  0  0 
M  END
> <Name>
Phenol, 4-chloro-3-methyl-

> <Source>
DSSTox2DMolFile

> <Tox>
4.416

> <CAS>
59-50-7

$$$$

  CDK

 20 19  0  0  0  0  0  0  0  0999 V2000
    2.6619   -2.2989    0.0000 N   0  0  0  0  0  0  0  0  0  0  0  0
    3.9928   -2.2989    0.0000 C   0  0  0  0  0  0  0  0  0  0  0  0
    1.9964   -3.4570    0.0000 C   0  0  0  0  0  0  0  0  0  0  0  0
    1.9964   -1.1494    0.0000 C   0  0  0  0  0  0  0  0  0  0  0  0
    4.6496   -3.4570    0.0000 C   0  0  0  0  0  0  0  0  0  0  0  0
    2.6619   -4.6064    0.0000 C   0  0  0  0  0  0  0  0  0  0  0  0
    0.6655   -1.1494    0.0000 C   0  0  0  0  0  0  0  0  0  0  0  0
    5.9805   -3.4570    0.0000 N   0  0  0  0  0  0  0  0  0  0  0  0
    3.9928   -4.6064    0.0000 O   0  0  0  0  0  0  0  0  0  0  0  0
    1.9964   -5.7558    0.0000 O   0  0  0  0  0  0  0  0  0  0  0  0
    0.0000   -2.2989    0.0000 O   0  0  0  0  0  0  0  0  0  0  0  0
    0.0000   -0.0000    0.0000 O   0  0  0  0  0  0  0  0  0  0  0  0
    6.6460   -2.2989    0.0000 C   0  0  0  0  0  0  0  0  0  0  0  0
    6.6460   -4.6064    0.0000 C   0  0  0  0  0  0  0  0  0  0  0  0
    5.9805   -1.1494    0.0000 C   0  0  0  0  0  0  0  0  0  0  0  0
    7.9769   -4.6064    0.0000 C   0  0  0  0  0  0  0  0  0  0  0  0
    6.6460   -0.0000    0.0000 O   0  0  0  0  0  0  0  0  0  0  0  0
    4.6496   -1.1494    0.0000 O   0  0  0  0  0  0  0  0  0  0  0  0
    8.6424   -3.4570    0.0000 O   0  0  0  0  0  0  0  0  0  0  0  0
    8.6424   -5.7558    0.0000 O   0  0  0  0  0  0  0  0  0  0  0  0
  1  2  1  0  0  0  0 
  1  3  1  0  0  0  0 
  1  4  1  0  0  0  0 
  2  5  1  0  0  0  0 
  3  6  1  0  0  0  0 
  4  7  1  0  0  0  0 
  5  8  1  0  0  0  0 
  6  9  1  0  0  0  0 
  6 10  2  0  0  0  0 
  7 11  1  0  0  0  0 
  7 12  2  0  0  0  0 
  8 13  1  0  0  0  0 
  8 14  1  0  0  0  0 
 13 15  1  0  0  0  0 
 14 16  1  0  0  0  0 
 15 17  1  0  0  0  0 
 15 18  2  0  0  0  0 
 16 19  1  0  0  0  0 
 16 20  2  0  0  0  0 
M  END
> <Name>
Glycine, N,N'-1,2-ethanediylbis(N-(carboxymethyl)-

> <Source>
DSSTox2DMolFile

> <Tox>
3.689

> <CAS>
60-00-4

$$$$

  CDK

  5  4  0  0  0  0  0  0  0  0999 V2000
    2.3050   -0.6638    0.0000 O   0  0  0  0  0  0  0  0  0  0  0  0
    1.1525   -0.0000    0.0000 C   0  0  0  0  0  0  0  0  0  0  0  0
    3.4575   -0.0000    0.0000 C   0  0  0  0  0  0  0  0  0  0  0  0
    0.0000   -0.6638    0.0000 C   0  0  0  0  0  0  0  0  0  0  0  0
    4.6099   -0.6638    0.0000 C   0  0  0  0  0  0  0  0  0  0  0  0
  1  2  1  0  0  0  0 
  1  3  1  0  0  0  0 
  2  4  1  0  0  0  0 
  3  5  1  0  0  0  0 
M  END
> <Name>
Ethane, 1,1'-oxybis-

> <Source>
DSSTox2DMolFile

> <Tox>
1.462

> <CAS>
60-29-7

$$$$

  CDK

 19 23  0  0  0  0  0  0  0  0999 V2000
    1.2310   -2.6401    0.0000 C   0  0  0  0  0  0  0  0  0  0  0  0
    0.0000   -2.6401    0.0000 O   0  0  0  0  0  0  0  0  0  0  0  0
    0.6007   -3.6931    0.0000 C   0  0  0  0  0  0  0  0  0  0  0  0
    2.2470   -2.9219    0.0000 C   0  0  0  0  0  0  0  0  0  0  0  0
    1.7946   -3.9008    0.0000 C   0  0  0  0  0  0  0  0  0  0  0  0
    3.4113   -2.7068    0.0000 C   0  0  0  0  0  0  0  0  0  0  0  0
    2.1061   -5.0280    0.0000 C   0  0  0  0  0  0  0  0  0  0  0  0
    3.3001   -3.6931    0.0000 C   0  0  0  0  0  0  0  0  0  0  0  0
    4.8500   -2.0023    0.0000 C   0  0  0  0  0  0  0  0  0  0  0  0
    4.3902   -3.1295    0.0000 C   0  0  0  0  0  0  0  0  0  0  0  0
    6.3258   -2.7068    0.0000 C   0  0  0  0  0  0  0  0  0  0  0  0
    4.3902   -0.7787    0.0000 C   0  0  0  0  0  0  0  0  0  0  0  0
    5.6583   -1.1643    0.0000 Cl  0  0  0  0  0  0  0  0  0  0  0  0
    5.6954   -3.7599    0.0000 C   0  0  0  0  0  0  0  0  0  0  0  0
    3.9749   -4.3235    0.0000 Cl  0  0  0  0  0  0  0  0  0  0  0  0
    7.4159   -2.4250    0.0000 Cl  0  0  0  0  0  0  0  0  0  0  0  0
    5.1318   -0.0000    0.0000 Cl  0  0  0  0  0  0  0  0  0  0  0  0
    3.5522   -0.0742    0.0000 Cl  0  0  0  0  0  0  0  0  0  0  0  0
    6.1478   -4.8203    0.0000 Cl  0  0  0  0  0  0  0  0  0  0  0  0
  1  2  1  0  0  0  0 
  1  3  1  0  0  0  0 
  1  4  1  0  0  0  0 
  2  3  1  0  0  0  0 
  3  5  1  0  0  0  0 
  4  6  1  0  0  0  0 
  4  7  1  0  0  0  0 
  5  7  1  0  0  0  0 
  5  8  1  0  0  0  0 
  6  9  1  0  0  0  0 
  6  8  1  0  0  0  0 
  8 10  1  0  0  0  0 
  9 11  1  0  0  0  0 
  9 12  1  0  0  0  0 
  9 13  1  0  0  0  0 
 10 14  1  0  0  0  0 
 10 12  1  0  0  0  0 
 10 15  1  0  0  0  0 
 14 11  2  0  0  0  0 
 11 16  1  0  0  0  0 
 12 17  1  0  0  0  0 
 12 18  1  0  0  0  0 
 14 19  1  0  0  0  0 
M  END
> <Name>
2,7:3,6-Dimethanonaphth(2,3-b)oxirene, 3,4,5,6,9,9-hexachloro-1a,2,2a,3,6,6a,7,7a-octahydro-, (1aalpha,2beta,2aalpha,3beta,6beta,6aalpha,7beta,7aalpha)-

> <Source>
DSSTox2DMolFile

> <Tox>
7.210

> <CAS>
60-57-1

$$$$

  CDK

  7  7  0  0  0  0  0  0  0  0999 V2000
    0.0000   -1.1496    0.0000 N   0  0  0  0  0  0  0  0  0  0  0  0
    1.3292   -1.1496    0.0000 C   0  0  0  0  0  0  0  0  0  0  0  0
    1.9958   -0.0000    0.0000 C   0  0  0  0  0  0  0  0  0  0  0  0
    1.9958   -2.3032    0.0000 C   0  0  0  0  0  0  0  0  0  0  0  0
    3.3250   -0.0000    0.0000 C   0  0  0  0  0  0  0  0  0  0  0  0
    3.3250   -2.3032    0.0000 C   0  0  0  0  0  0  0  0  0  0  0  0
    3.9916   -1.1496    0.0000 C   0  0  0  0  0  0  0  0  0  0  0  0
  1  2  1  0  0  0  0 
  2  3  2  0  0  0  0 
  2  4  1  0  0  0  0 
  3  5  1  0  0  0  0 
  6  4  2  0  0  0  0 
  5  7  2  0  0  0  0 
  7  6  1  0  0  0  0 
M  END
> <Name>
Benzenamine

> <Source>
DSSTox2DMolFile

> <Tox>
2.993

> <CAS>
62-53-3

$$$$

  CDK

  4  3  0  0  0  0  0  0  0  0999 V2000
    1.9950   -0.0000    0.0000 C   0  0  0  0  0  0  0  0  0  0  0  0
    1.3292   -1.1518    0.0000 C   0  0  0  0  0  0  0  0  0  0  0  0
    1.9950   -2.3037    0.0000 S   0  0  0  0  0  0  0  0  0  0  0  0
    0.0000   -1.1518    0.0000 N   0  0  0  0  0  0  0  0  0  0  0  0
  1  2  1  0  0  0  0 
  2  3  2  0  0  0  0 
  2  4  1  0  0  0  0 
M  END
> <Name>
Acetamide, thio- (VAN) (8CI)

> <Source>
DSSTox2DMolFile

> <Tox>
2.444

> <CAS>
62-55-5

$$$$

  CDK

 11 10  0  0  0  0  0  0  0  0999 V2000
    3.3245   -1.9911    0.0000 O   0  0  0  0  0  0  0  0  0  0  0  0
    1.9911   -1.9911    0.0000 P   0  0  0  0  0  0  0  0  0  0  0  0
    1.9911   -3.3245    0.0000 O   0  0  0  0  0  0  0  0  0  0  0  0
    0.6637   -1.9911    0.0000 O   0  0  0  0  0  0  0  0  0  0  0  0
    1.9911   -0.6637    0.0000 O   0  0  0  0  0  0  0  0  0  0  0  0
    3.1451   -3.9882    0.0000 C   0  0  0  0  0  0  0  0  0  0  0  0
    0.0000   -3.1451    0.0000 C   0  0  0  0  0  0  0  0  0  0  0  0
    3.1451   -0.0000    0.0000 C   0  0  0  0  0  0  0  0  0  0  0  0
    3.1451   -5.3156    0.0000 C   0  0  0  0  0  0  0  0  0  0  0  0
    4.2931   -5.9793    0.0000 Cl  0  0  0  0  0  0  0  0  0  0  0  0
    1.9911   -5.9793    0.0000 Cl  0  0  0  0  0  0  0  0  0  0  0  0
  1  2  2  0  0  0  0 
  2  3  1  0  0  0  0 
  2  4  1  0  0  0  0 
  2  5  1  0  0  0  0 
  3  6  1  0  0  0  0 
  4  7  1  0  0  0  0 
  5  8  1  0  0  0  0 
  6  9  2  0  0  0  0 
  9 10  1  0  0  0  0 
  9 11  1  0  0  0  0 
M  END
> <Name>
Phosphoric acid, 2,2-dichloroethenyl dimethyl ester

> <Source>
DSSTox2DMolFile

> <Tox>
4.742

> <CAS>
62-73-7

$$$$

  CDK

  5  4  0  0  0  0  0  0  0  0999 V2000
    3.4567   -1.9945    0.0000 C   0  0  0  0  0  0  0  0  0  0  0  0
    2.3056   -1.3308    0.0000 N   0  0  0  0  0  0  0  0  0  0  0  0
    1.1511   -1.9945    0.0000 N   0  0  0  0  0  0  0  0  0  0  0  0
    2.3056   -0.0000    0.0000 C   0  0  0  0  0  0  0  0  0  0  0  0
    0.0000   -1.3308    0.0000 O   0  0  0  0  0  0  0  0  0  0  0  0
  1  2  1  0  0  0  0 
  2  3  1  0  0  0  0 
  2  4  1  0  0  0  0 
  3  5  2  0  0  0  0 
M  END
> <Name>
Methanamine, N-methyl-N-nitroso-

> <Source>
DSSTox2DMolFile

> <Tox>
1.897

> <CAS>
62-75-9

$$$$

  CDK

 15 16  0  0  0  0  0  0  0  0999 V2000
    1.1543   -0.6704    0.0000 O   0  0  0  0  0  0  0  0  0  0  0  0
    1.1543   -1.9975    0.0000 C   0  0  0  0  0  0  0  0  0  0  0  0
    2.3016   -2.6610    0.0000 O   0  0  0  0  0  0  0  0  0  0  0  0
    0.0000   -2.6610    0.0000 N   0  0  0  0  0  0  0  0  0  0  0  0
    3.4559   -1.9975    0.0000 C   0  0  0  0  0  0  0  0  0  0  0  0
    0.0000   -3.9950    0.0000 C   0  0  0  0  0  0  0  0  0  0  0  0
    4.6102   -2.6610    0.0000 C   0  0  0  0  0  0  0  0  0  0  0  0
    3.4559   -0.6704    0.0000 C   0  0  0  0  0  0  0  0  0  0  0  0
    5.7575   -1.9975    0.0000 C   0  0  0  0  0  0  0  0  0  0  0  0
    4.6102   -3.9950    0.0000 C   0  0  0  0  0  0  0  0  0  0  0  0
    4.6102   -0.0000    0.0000 C   0  0  0  0  0  0  0  0  0  0  0  0
    5.7575   -0.6704    0.0000 C   0  0  0  0  0  0  0  0  0  0  0  0
    6.9118   -2.6610    0.0000 C   0  0  0  0  0  0  0  0  0  0  0  0
    5.7575   -4.6585    0.0000 C   0  0  0  0  0  0  0  0  0  0  0  0
    6.9118   -3.9950    0.0000 C   0  0  0  0  0  0  0  0  0  0  0  0
  1  2  2  0  0  0  0 
  2  3  1  0  0  0  0 
  2  4  1  0  0  0  0 
  3  5  1  0  0  0  0 
  4  6  1  0  0  0  0 
  5  7  2  0  0  0  0 
  5  8  1  0  0  0  0 
  7  9  1  0  0  0  0 
  7 10  1  0  0  0  0 
 11  8  2  0  0  0  0 
  9 12  2  0  0  0  0 
  9 13  1  0  0  0  0 
 14 10  2  0  0  0  0 
 12 11  1  0  0  0  0 
 13 15  2  0  0  0  0 
 15 14  1  0  0  0  0 
M  END
> <Name>
Carbamic acid, methyl-, 1-naphthyl ester

> <Source>
DSSTox2DMolFile

> <Tox>
4.446

> <CAS>
63-25-2

$$$$

  CDK

  3  2  0  0  0  0  0  0  0  0999 V2000
    2.3030   -0.6656    0.0000 C   0  0  0  0  0  0  0  0  0  0  0  0
    1.1515   -0.0000    0.0000 C   0  0  0  0  0  0  0  0  0  0  0  0
    0.0000   -0.6656    0.0000 O   0  0  0  0  0  0  0  0  0  0  0  0
  1  2  1  0  0  0  0 
  2  3  1  0  0  0  0 
M  END
> <Name>
Ethyl alcohol

> <Source>
DSSTox2DMolFile

> <Tox>
0.534

> <CAS>
64-17-5

$$$$

  CDK

  4  3  0  0  0  0  0  0  0  0999 V2000
    1.3292   -1.1518    0.0000 C   0  0  0  0  0  0  0  0  0  0  0  0
    1.9950   -0.0000    0.0000 C   0  0  0  0  0  0  0  0  0  0  0  0
    1.9950   -2.3037    0.0000 O   0  0  0  0  0  0  0  0  0  0  0  0
    0.0000   -1.1518    0.0000 O   0  0  0  0  0  0  0  0  0  0  0  0
  1  2  1  0  0  0  0 
  1  3  2  0  0  0  0 
  1  4  1  0  0  0  0 
M  END
> <Name>
Acetic acid, of a concentration of more than 10 per cent, by weight, of acetic acid

> <Source>
DSSTox2DMolFile

> <Tox>
2.857

> <CAS>
64-19-7

$$$$

  CDK

 10 10  0  0  0  0  0  0  0  0999 V2000
    2.6582   -1.1499    0.0000 C   0  0  0  0  0  0  0  0  0  0  0  0
    1.9971   -0.0000    0.0000 O   0  0  0  0  0  0  0  0  0  0  0  0
    3.9896   -1.1499    0.0000 C   0  0  0  0  0  0  0  0  0  0  0  0
    1.9971   -2.3044    0.0000 C   0  0  0  0  0  0  0  0  0  0  0  0
    4.6553   -2.3044    0.0000 C   0  0  0  0  0  0  0  0  0  0  0  0
    2.6582   -3.4542    0.0000 C   0  0  0  0  0  0  0  0  0  0  0  0
    0.6657   -2.3044    0.0000 C   0  0  0  0  0  0  0  0  0  0  0  0
    3.9896   -3.4542    0.0000 C   0  0  0  0  0  0  0  0  0  0  0  0
    0.0000   -3.4542    0.0000 O   0  0  0  0  0  0  0  0  0  0  0  0
    0.0000   -1.1499    0.0000 N   0  0  0  0  0  0  0  0  0  0  0  0
  1  2  1  0  0  0  0 
  1  3  2  0  0  0  0 
  1  4  1  0  0  0  0 
  3  5  1  0  0  0  0 
  6  4  2  0  0  0  0 
  4  7  1  0  0  0  0 
  5  8  2  0  0  0  0 
  8  6  1  0  0  0  0 
  7  9  2  0  0  0  0 
  7 10  1  0  0  0  0 
M  END
> <Name>
Benzamide, 2-hydroxy-

> <Source>
DSSTox2DMolFile

> <Tox>
3.133

> <CAS>
65-45-2

$$$$

  CDK

  7  6  0  0  0  0  0  0  0  0999 V2000
    0.0000   -0.6638    0.0000 C   0  0  0  0  0  0  0  0  0  0  0  0
    1.1548   -0.0000    0.0000 C   0  0  0  0  0  0  0  0  0  0  0  0
    2.3027   -0.6638    0.0000 C   0  0  0  0  0  0  0  0  0  0  0  0
    3.4575   -0.0000    0.0000 C   0  0  0  0  0  0  0  0  0  0  0  0
    4.6122   -0.6638    0.0000 C   0  0  0  0  0  0  0  0  0  0  0  0
    5.7601   -0.0000    0.0000 C   0  0  0  0  0  0  0  0  0  0  0  0
    6.9149   -0.6638    0.0000 O   0  0  0  0  0  0  0  0  0  0  0  0
  1  2  1  0  0  0  0 
  2  3  1  0  0  0  0 
  3  4  1  0  0  0  0 
  4  5  1  0  0  0  0 
  5  6  1  0  0  0  0 
  6  7  2  0  0  0  0 
M  END
> <Name>
Hexaldehyde

> <Source>
DSSTox2DMolFile

> <Tox>
3.756

> <CAS>
66-25-1

$$$$

  CDK

 25 28  0  0  0  0  0  0  0  0999 V2000
    5.7947   -5.4884    0.0000 O   0  0  0  0  0  0  0  0  0  0  0  0
    4.6640   -4.8407    0.0000 C   0  0  0  0  0  0  0  0  0  0  0  0
    3.6747   -5.6769    0.0000 O   0  0  0  0  0  0  0  0  0  0  0  0
    4.4402   -3.5569    0.0000 C   0  0  0  0  0  0  0  0  0  0  0  0
    2.4498   -5.2293    0.0000 C   0  0  0  0  0  0  0  0  0  0  0  0
    3.2153   -3.1093    0.0000 C   0  0  0  0  0  0  0  0  0  0  0  0
    5.5238   -2.2613    0.0000 C   0  0  0  0  0  0  0  0  0  0  0  0
    1.4487   -6.0656    0.0000 C   0  0  0  0  0  0  0  0  0  0  0  0
    2.2260   -3.9456    0.0000 C   0  0  0  0  0  0  0  0  0  0  0  0
    2.9916   -1.8256    0.0000 O   0  0  0  0  0  0  0  0  0  0  0  0
    7.2198   -2.2613    0.0000 C   0  0  0  0  0  0  0  0  0  0  0  0
    0.2238   -5.6180    0.0000 C   0  0  0  0  0  0  0  0  0  0  0  0
    1.0011   -3.4980    0.0000 C   0  0  0  0  0  0  0  0  0  0  0  0
    7.8675   -3.3802    0.0000 C   0  0  0  0  0  0  0  0  0  0  0  0
    7.8675   -1.1307    0.0000 C   0  0  0  0  0  0  0  0  0  0  0  0
    0.0000   -4.3342    0.0000 C   0  0  0  0  0  0  0  0  0  0  0  0
    7.4318   -4.6051    0.0000 O   0  0  0  0  0  0  0  0  0  0  0  0
    9.1749   -3.3802    0.0000 C   0  0  0  0  0  0  0  0  0  0  0  0
    9.1749   -1.1307    0.0000 O   0  0  0  0  0  0  0  0  0  0  0  0
    7.2198   -0.0000    0.0000 O   0  0  0  0  0  0  0  0  0  0  0  0
    9.8227   -4.5109    0.0000 C   0  0  0  0  0  0  0  0  0  0  0  0
    9.8227   -2.2613    0.0000 C   0  0  0  0  0  0  0  0  0  0  0  0
   11.1300   -4.5109    0.0000 C   0  0  0  0  0  0  0  0  0  0  0  0
   11.1300   -2.2613    0.0000 C   0  0  0  0  0  0  0  0  0  0  0  0
   11.7778   -3.3802    0.0000 C   0  0  0  0  0  0  0  0  0  0  0  0
  1  2  2  0  0  0  0 
  2  3  1  0  0  0  0 
  2  4  1  0  0  0  0 
  3  5  1  0  0  0  0 
  6  4  2  0  0  0  0 
  4  7  1  0  0  0  0 
  5  8  2  0  0  0  0 
  5  9  1  0  0  0  0 
  9  6  1  0  0  0  0 
  6 10  1  0  0  0  0 
  7 11  1  0  0  0  0 
  8 12  1  0  0  0  0 
 13  9  2  0  0  0  0 
 11 14  2  0  0  0  0 
 11 15  1  0  0  0  0 
 12 16  2  0  0  0  0 
 16 13  1  0  0  0  0 
 14 17  1  0  0  0  0 
 14 18  1  0  0  0  0 
 19 15  1  0  0  0  0 
 15 20  2  0  0  0  0 
 18 21  2  0  0  0  0 
 18 22  1  0  0  0  0 
 22 19  1  0  0  0  0 
 21 23  1  0  0  0  0 
 24 22  2  0  0  0  0 
 23 25  2  0  0  0  0 
 25 24  1  0  0  0  0 
M  END
> <Name>
2H-1-Benzopyran-2-one, 3,3'-methylenebis(4-hydroxy-

> <Source>
DSSTox2DMolFile

> <Tox>
4.818

> <CAS>
66-76-2

$$$$

  CDK

 15 16  0  0  0  0  0  0  0  0999 V2000
    6.9060   -1.9981    0.0000 C   0  0  0  0  0  0  0  0  0  0  0  0
    8.0570   -2.6611    0.0000 C   0  0  0  0  0  0  0  0  0  0  0  0
    5.7550   -2.6611    0.0000 C   0  0  0  0  0  0  0  0  0  0  0  0
    6.9060   -0.6630    0.0000 C   0  0  0  0  0  0  0  0  0  0  0  0
    9.2080   -1.9981    0.0000 O   0  0  0  0  0  0  0  0  0  0  0  0
    4.6040   -1.9981    0.0000 C   0  0  0  0  0  0  0  0  0  0  0  0
    5.7550   -0.0000    0.0000 C   0  0  0  0  0  0  0  0  0  0  0  0
    4.6040   -0.6630    0.0000 C   0  0  0  0  0  0  0  0  0  0  0  0
    3.4530   -0.0000    0.0000 O   0  0  0  0  0  0  0  0  0  0  0  0
    2.3020   -0.6630    0.0000 C   0  0  0  0  0  0  0  0  0  0  0  0
    2.3020   -1.9981    0.0000 C   0  0  0  0  0  0  0  0  0  0  0  0
    1.1510   -0.0000    0.0000 C   0  0  0  0  0  0  0  0  0  0  0  0
    1.1510   -2.6611    0.0000 C   0  0  0  0  0  0  0  0  0  0  0  0
    0.0000   -0.6630    0.0000 C   0  0  0  0  0  0  0  0  0  0  0  0
    0.0000   -1.9981    0.0000 C   0  0  0  0  0  0  0  0  0  0  0  0
  1  2  1  0  0  0  0 
  1  3  2  0  0  0  0 
  1  4  1  0  0  0  0 
  2  5  2  0  0  0  0 
  3  6  1  0  0  0  0 
  7  4  2  0  0  0  0 
  6  8  2  0  0  0  0 
  8  7  1  0  0  0  0 
  8  9  1  0  0  0  0 
  9 10  1  0  0  0  0 
 10 11  2  0  0  0  0 
 10 12  1  0  0  0  0 
 11 13  1  0  0  0  0 
 14 12  2  0  0  0  0 
 13 15  2  0  0  0  0 
 15 14  1  0  0  0  0 
M  END
> <Name>
Benzaldehyde, 4-phenoxy- (9CI)

> <Source>
DSSTox2DMolFile

> <Tox>
4.634

> <CAS>
67-36-7

$$$$

  CDK

  2  1  0  0  0  0  0  0  0  0999 V2000
    0.0000   -0.0000    0.0000 C   0  0  0  0  0  0  0  0  0  0  0  0
    1.3300   -0.0000    0.0000 O   0  0  0  0  0  0  0  0  0  0  0  0
  1  2  1  0  0  0  0 
M  END
> <Name>
Methanol

> <Source>
DSSTox2DMolFile

> <Tox>
0.056

> <CAS>
67-56-1

$$$$

  CDK

  4  3  0  0  0  0  0  0  0  0999 V2000
    1.1518   -0.0000    0.0000 O   0  0  0  0  0  0  0  0  0  0  0  0
    1.1518   -1.3292    0.0000 C   0  0  0  0  0  0  0  0  0  0  0  0
    0.0000   -1.9950    0.0000 C   0  0  0  0  0  0  0  0  0  0  0  0
    2.3037   -1.9950    0.0000 C   0  0  0  0  0  0  0  0  0  0  0  0
  1  2  1  0  0  0  0 
  2  3  1  0  0  0  0 
  2  4  1  0  0  0  0 
M  END
> <Name>
Isopropyl alcohol

> <Source>
DSSTox2DMolFile

> <Tox>
0.778

> <CAS>
67-63-0

$$$$

  CDK

  4  3  0  0  0  0  0  0  0  0999 V2000
    1.9950   -0.0000    0.0000 C   0  0  0  0  0  0  0  0  0  0  0  0
    1.3292   -1.1518    0.0000 C   0  0  0  0  0  0  0  0  0  0  0  0
    1.9950   -2.3037    0.0000 C   0  0  0  0  0  0  0  0  0  0  0  0
    0.0000   -1.1518    0.0000 O   0  0  0  0  0  0  0  0  0  0  0  0
  1  2  1  0  0  0  0 
  2  3  1  0  0  0  0 
  2  4  2  0  0  0  0 
M  END
> <Name>
2-Propanone

> <Source>
DSSTox2DMolFile

> <Tox>
0.854

> <CAS>
67-64-1

$$$$

  CDK

  4  3  0  0  0  0  0  0  0  0999 V2000
    1.9950   -0.0000    0.0000 Cl  0  0  0  0  0  0  0  0  0  0  0  0
    1.3292   -1.1518    0.0000 C   0  0  0  0  0  0  0  0  0  0  0  0
    1.9950   -2.3037    0.0000 Cl  0  0  0  0  0  0  0  0  0  0  0  0
    0.0000   -1.1518    0.0000 Cl  0  0  0  0  0  0  0  0  0  0  0  0
  1  2  1  0  0  0  0 
  2  3  1  0  0  0  0 
  2  4  1  0  0  0  0 
M  END
> <Name>
Methane, trichloro-

> <Source>
DSSTox2DMolFile

> <Tox>
3.094

> <CAS>
67-66-3

$$$$

  CDK

  8  7  0  0  0  0  0  0  0  0999 V2000
    0.0000   -1.3283    0.0000 Cl  0  0  0  0  0  0  0  0  0  0  0  0
    1.3283   -1.3283    0.0000 C   0  0  0  0  0  0  0  0  0  0  0  0
    1.3283   -2.6606    0.0000 C   0  0  0  0  0  0  0  0  0  0  0  0
    1.3283   -0.0000    0.0000 Cl  0  0  0  0  0  0  0  0  0  0  0  0
    2.6606   -1.3283    0.0000 Cl  0  0  0  0  0  0  0  0  0  0  0  0
    2.6606   -2.6606    0.0000 Cl  0  0  0  0  0  0  0  0  0  0  0  0
    1.3283   -3.9889    0.0000 Cl  0  0  0  0  0  0  0  0  0  0  0  0
    0.0000   -2.6606    0.0000 Cl  0  0  0  0  0  0  0  0  0  0  0  0
  1  2  1  0  0  0  0 
  2  3  1  0  0  0  0 
  2  4  1  0  0  0  0 
  2  5  1  0  0  0  0 
  3  6  1  0  0  0  0 
  3  7  1  0  0  0  0 
  3  8  1  0  0  0  0 
M  END
> <Name>
Ethane, hexachloro-

> <Source>
DSSTox2DMolFile

> <Tox>
5.242

> <CAS>
67-72-1

$$$$

  CDK

  5  4  0  0  0  0  0  0  0  0999 V2000
    2.3056   -0.0000    0.0000 O   0  0  0  0  0  0  0  0  0  0  0  0
    2.3056   -1.3308    0.0000 C   0  0  0  0  0  0  0  0  0  0  0  0
    3.4567   -1.9945    0.0000 O   0  0  0  0  0  0  0  0  0  0  0  0
    1.1511   -1.9945    0.0000 C   0  0  0  0  0  0  0  0  0  0  0  0
    0.0000   -1.3308    0.0000 S   0  0  0  0  0  0  0  0  0  0  0  0
  1  2  2  0  0  0  0 
  2  3  1  0  0  0  0 
  2  4  1  0  0  0  0 
  4  5  1  0  0  0  0 
M  END
> <Name>
Acetic acid, mercapto-

> <Source>
DSSTox2DMolFile

> <Tox>
3.487

> <CAS>
68-11-1

$$$$

  CDK

 21 22  0  0  0  0  0  0  0  0999 V2000
    2.3028   -5.3074    0.0000 O   0  0  0  0  0  0  0  0  0  0  0  0
    2.3028   -3.9830    0.0000 C   0  0  0  0  0  0  0  0  0  0  0  0
    1.1465   -3.3208    0.0000 C   0  0  0  0  0  0  0  0  0  0  0  0
    3.4493   -3.3208    0.0000 C   0  0  0  0  0  0  0  0  0  0  0  0
    1.1465   -1.9866    0.0000 C   0  0  0  0  0  0  0  0  0  0  0  0
    0.0000   -3.9830    0.0000 Cl  0  0  0  0  0  0  0  0  0  0  0  0
    3.4493   -1.9866    0.0000 C   0  0  0  0  0  0  0  0  0  0  0  0
    4.9417   -4.1807    0.0000 C   0  0  0  0  0  0  0  0  0  0  0  0
    2.3028   -1.3244    0.0000 C   0  0  0  0  0  0  0  0  0  0  0  0
    4.1115   -1.5912    0.0000 Cl  0  0  0  0  0  0  0  0  0  0  0  0
    6.4341   -3.3208    0.0000 C   0  0  0  0  0  0  0  0  0  0  0  0
    2.3028   -0.0000    0.0000 Cl  0  0  0  0  0  0  0  0  0  0  0  0
    6.4341   -1.9866    0.0000 C   0  0  0  0  0  0  0  0  0  0  0  0
    7.5805   -3.9830    0.0000 C   0  0  0  0  0  0  0  0  0  0  0  0
    7.5805   -1.3244    0.0000 C   0  0  0  0  0  0  0  0  0  0  0  0
    5.4655   -1.3936    0.0000 O   0  0  0  0  0  0  0  0  0  0  0  0
    8.7369   -3.3208    0.0000 C   0  0  0  0  0  0  0  0  0  0  0  0
    7.5805   -5.3074    0.0000 Cl  0  0  0  0  0  0  0  0  0  0  0  0
    8.7369   -1.9866    0.0000 C   0  0  0  0  0  0  0  0  0  0  0  0
    7.5805   -0.0000    0.0000 Cl  0  0  0  0  0  0  0  0  0  0  0  0
    9.8833   -3.9830    0.0000 Cl  0  0  0  0  0  0  0  0  0  0  0  0
  1  2  1  0  0  0  0 
  2  3  2  0  0  0  0 
  2  4  1  0  0  0  0 
  3  5  1  0  0  0  0 
  3  6  1  0  0  0  0 
  7  4  2  0  0  0  0 
  4  8  1  0  0  0  0 
  5  9  2  0  0  0  0 
  9  7  1  0  0  0  0 
  7 10  1  0  0  0  0 
  8 11  1  0  0  0  0 
  9 12  1  0  0  0  0 
 11 13  2  0  0  0  0 
 11 14  1  0  0  0  0 
 13 15  1  0  0  0  0 
 13 16  1  0  0  0  0 
 17 14  2  0  0  0  0 
 14 18  1  0  0  0  0 
 15 19  2  0  0  0  0 
 15 20  1  0  0  0  0 
 19 17  1  0  0  0  0 
 17 21  1  0  0  0  0 
M  END
> <Name>
Phenol, 2,2'-methylenebis(3,4,6-trichloro-

> <Source>
DSSTox2DMolFile

> <Tox>
7.287

> <CAS>
70-30-4

$$$$

  CDK

 21 22  0  0  0  0  0  0  0  0999 V2000
   -1.8594   -0.2364    0.2397 C   0  0  0  0  0  0  0  0  0  0  0  0
   -2.4042   -1.5687    0.7167 C   0  0  0  0  0  0  0  0  0  0  0  0
   -3.2971   -0.6071   -0.0384 C   0  0  0  0  0  0  0  0  0  0  0  0
   -0.8754   -0.1618   -0.8851 C   0  0  0  0  0  0  0  0  0  0  0  0
   -2.0017   -2.8423    0.0244 C   0  0  0  0  0  0  0  0  0  0  0  0
   -2.5664   -1.7596    2.2000 C   0  0  0  0  0  0  0  0  0  0  0  0
   -4.3830    0.1205    0.6384 C   0  0  0  0  0  0  0  0  0  0  0  0
   -1.0831   -0.2467   -2.0809 O   0  0  0  0  0  0  0  0  0  0  0  0
    0.3961    0.0502   -0.4397 O   0  0  0  0  0  0  0  0  0  0  0  0
   -4.8997    1.2758    0.1960 C   0  0  0  0  0  0  0  0  0  0  0  0
    1.4456    0.1456   -1.4080 C   0  0  0  0  0  0  0  0  0  0  0  0
   -6.0146    1.9406    0.9229 C   0  0  0  0  0  0  0  0  0  0  0  0
   -4.4146    1.9786   -1.0195 C   0  0  0  0  0  0  0  0  0  0  0  0
    2.7192    0.3343   -0.6354 C   0  0  0  0  0  0  0  0  0  0  0  0
    3.5880   -0.7336   -0.3783 C   0  0  0  0  0  0  0  0  0  0  0  0
    3.0476    1.6139   -0.1823 C   0  0  0  0  0  0  0  0  0  0  0  0
    4.7718   -0.5004    0.3260 C   0  0  0  0  0  0  0  0  0  0  0  0
    3.2894   -2.1190   -0.8293 C   0  0  0  0  0  0  0  0  0  0  0  0
    4.2226    1.8366    0.5208 C   0  0  0  0  0  0  0  0  0  0  0  0
    5.0933    0.7763    0.7805 C   0  0  0  0  0  0  0  0  0  0  0  0
    6.3454    1.0099    1.5449 C   0  0  0  0  0  0  0  0  0  0  0  0
  1  2  1  0  0  0  0 
  1  3  1  0  0  0  0 
  1  4  1  0  0  0  0 
  2  3  1  0  0  0  0 
  2  5  1  0  0  0  0 
  2  6  1  0  0  0  0 
  3  7  1  0  0  0  0 
  4  8  2  0  0  0  0 
  4  9  1  0  0  0  0 
  7 10  2  0  0  0  0 
  9 11  1  0  0  0  0 
 10 12  1  0  0  0  0 
 10 13  1  0  0  0  0 
 11 14  1  0  0  0  0 
 14 15  1  0  0  0  0 
 14 16  2  0  0  0  0 
 15 17  2  0  0  0  0 
 15 18  1  0  0  0  0 
 19 16  1  0  0  0  0 
 17 20  1  0  0  0  0 
 20 19  2  0  0  0  0 
 20 21  1  0  0  0  0 
M  END
> <Name>
Cyclopropanecarboxylic acid, 2,2-dimethyl-3-(2-methyl-1-propenyl)-, (2,4-dimethylphenyl)methyl ester (VAN) (9CI)

> <Source>
DougDB3DMolFile

> <Tox>
6.665

> <CAS>
70-38-2

$$$$

  CDK

 11 11  0  0  0  0  0  0  0  0999 V2000
    1.9925   -1.1488    0.0000 C   0  0  0  0  0  0  0  0  0  0  0  0
    3.3269   -1.1488    0.0000 C   0  0  0  0  0  0  0  0  0  0  0  0
    1.3283   -2.3037    0.0000 C   0  0  0  0  0  0  0  0  0  0  0  0
    3.9910   -2.3037    0.0000 C   0  0  0  0  0  0  0  0  0  0  0  0
    1.9925   -3.4525    0.0000 C   0  0  0  0  0  0  0  0  0  0  0  0
    0.0000   -2.3037    0.0000 N   0  0  0  0  0  0  0  0  0  0  0  0
    3.3269   -3.4525    0.0000 C   0  0  0  0  0  0  0  0  0  0  0  0
    5.3194   -2.3037    0.0000 C   0  0  0  0  0  0  0  0  0  0  0  0
    5.9835   -3.4525    0.0000 O   0  0  0  0  0  0  0  0  0  0  0  0
    5.9835   -1.1488    0.0000 C   0  0  0  0  0  0  0  0  0  0  0  0
    5.3194   -0.0000    0.0000 C   0  0  0  0  0  0  0  0  0  0  0  0
  1  2  2  0  0  0  0 
  1  3  1  0  0  0  0 
  2  4  1  0  0  0  0 
  3  5  2  0  0  0  0 
  3  6  1  0  0  0  0 
  4  7  2  0  0  0  0 
  4  8  1  0  0  0  0 
  7  5  1  0  0  0  0 
  8  9  2  0  0  0  0 
  8 10  1  0  0  0  0 
 10 11  1  0  0  0  0 
M  END
> <Name>
1-Propanone, 1-(4-aminophenyl)-

> <Source>
DSSTox2DMolFile

> <Tox>
3.009

> <CAS>
70-69-9

$$$$

  CDK

  4  3  0  0  0  0  0  0  0  0999 V2000
    0.0000   -0.0000    0.0000 O   0  0  0  0  0  0  0  0  0  0  0  0
    1.1513   -0.6638    0.0000 C   0  0  0  0  0  0  0  0  0  0  0  0
    2.3061   -0.0000    0.0000 C   0  0  0  0  0  0  0  0  0  0  0  0
    3.4575   -0.6638    0.0000 C   0  0  0  0  0  0  0  0  0  0  0  0
  1  2  1  0  0  0  0 
  2  3  1  0  0  0  0 
  3  4  1  0  0  0  0 
M  END
> <Name>
Propyl alcohol

> <Source>
DSSTox2DMolFile

> <Tox>
1.120

> <CAS>
71-23-8

$$$$

  CDK

  5  4  0  0  0  0  0  0  0  0999 V2000
    0.0000   -0.6638    0.0000 C   0  0  0  0  0  0  0  0  0  0  0  0
    1.1525   -0.0000    0.0000 C   0  0  0  0  0  0  0  0  0  0  0  0
    2.3050   -0.6638    0.0000 C   0  0  0  0  0  0  0  0  0  0  0  0
    3.4575   -0.0000    0.0000 C   0  0  0  0  0  0  0  0  0  0  0  0
    4.6099   -0.6638    0.0000 O   0  0  0  0  0  0  0  0  0  0  0  0
  1  2  1  0  0  0  0 
  2  3  1  0  0  0  0 
  3  4  1  0  0  0  0 
  4  5  1  0  0  0  0 
M  END
> <Name>
Butyl alcohol

> <Source>
DSSTox2DMolFile

> <Tox>
1.589

> <CAS>
71-36-3

$$$$

  CDK

  6  5  0  0  0  0  0  0  0  0999 V2000
    0.0000   -0.6630    0.0000 C   0  0  0  0  0  0  0  0  0  0  0  0
    1.1530   -0.0000    0.0000 C   0  0  0  0  0  0  0  0  0  0  0  0
    2.3060   -0.6630    0.0000 C   0  0  0  0  0  0  0  0  0  0  0  0
    3.4590   -0.0000    0.0000 C   0  0  0  0  0  0  0  0  0  0  0  0
    4.6119   -0.6630    0.0000 C   0  0  0  0  0  0  0  0  0  0  0  0
    5.7649   -0.0000    0.0000 O   0  0  0  0  0  0  0  0  0  0  0  0
  1  2  1  0  0  0  0 
  2  3  1  0  0  0  0 
  3  4  1  0  0  0  0 
  4  5  1  0  0  0  0 
  5  6  1  0  0  0  0 
M  END
> <Name>
Pentyl alcohol

> <Source>
DSSTox2DMolFile

> <Tox>
2.217

> <CAS>
71-41-0

$$$$

  CDK

  6  6  0  0  0  0  0  0  0  0999 V2000
    2.3036   -1.9950    0.0000 C   0  0  0  0  0  0  0  0  0  0  0  0
    1.1518   -2.6600    0.0000 C   0  0  0  0  0  0  0  0  0  0  0  0
    2.3036   -0.6650    0.0000 C   0  0  0  0  0  0  0  0  0  0  0  0
    0.0000   -1.9950    0.0000 C   0  0  0  0  0  0  0  0  0  0  0  0
    1.1518   -0.0000    0.0000 C   0  0  0  0  0  0  0  0  0  0  0  0
    0.0000   -0.6650    0.0000 C   0  0  0  0  0  0  0  0  0  0  0  0
  1  2  2  0  0  0  0 
  1  3  1  0  0  0  0 
  2  4  1  0  0  0  0 
  5  3  2  0  0  0  0 
  4  6  2  0  0  0  0 
  6  5  1  0  0  0  0 
M  END
> <Name>
Benzene, pure

> <Source>
DSSTox2DMolFile

> <Tox>
3.445

> <CAS>
71-43-2

$$$$

  CDK

  5  4  0  0  0  0  0  0  0  0999 V2000
    1.3300   -2.6600    0.0000 C   0  0  0  0  0  0  0  0  0  0  0  0
    1.3300   -1.3300    0.0000 C   0  0  0  0  0  0  0  0  0  0  0  0
    0.0000   -1.3300    0.0000 Cl  0  0  0  0  0  0  0  0  0  0  0  0
    1.3300   -0.0000    0.0000 Cl  0  0  0  0  0  0  0  0  0  0  0  0
    2.6600   -1.3300    0.0000 Cl  0  0  0  0  0  0  0  0  0  0  0  0
  1  2  1  0  0  0  0 
  2  3  1  0  0  0  0 
  2  4  1  0  0  0  0 
  2  5  1  0  0  0  0 
M  END
> <Name>
Ethane, 1,1,1-trichloro-

> <Source>
DSSTox2DMolFile

> <Tox>
3.402

> <CAS>
71-55-6

$$$$

  CDK

 21 22  0  0  0  0  0  0  0  0999 V2000
    4.4361   -1.3366    0.0000 Cl  0  0  0  0  0  0  0  0  0  0  0  0
    5.7611   -1.3366    0.0000 C   0  0  0  0  0  0  0  0  0  0  0  0
    5.7611   -2.6616    0.0000 C   0  0  0  0  0  0  0  0  0  0  0  0
    5.7611   -0.0000    0.0000 Cl  0  0  0  0  0  0  0  0  0  0  0  0
    7.0862   -1.3366    0.0000 Cl  0  0  0  0  0  0  0  0  0  0  0  0
    6.9133   -3.3299    0.0000 C   0  0  0  0  0  0  0  0  0  0  0  0
    4.6089   -3.3299    0.0000 C   0  0  0  0  0  0  0  0  0  0  0  0
    8.0656   -2.6616    0.0000 C   0  0  0  0  0  0  0  0  0  0  0  0
    6.9133   -4.6550    0.0000 C   0  0  0  0  0  0  0  0  0  0  0  0
    4.6089   -4.6550    0.0000 C   0  0  0  0  0  0  0  0  0  0  0  0
    3.4567   -2.6616    0.0000 C   0  0  0  0  0  0  0  0  0  0  0  0
    9.2178   -3.3299    0.0000 C   0  0  0  0  0  0  0  0  0  0  0  0
    8.0656   -5.3233    0.0000 C   0  0  0  0  0  0  0  0  0  0  0  0
    3.4567   -5.3233    0.0000 C   0  0  0  0  0  0  0  0  0  0  0  0
    2.3044   -3.3299    0.0000 C   0  0  0  0  0  0  0  0  0  0  0  0
    9.2178   -4.6550    0.0000 C   0  0  0  0  0  0  0  0  0  0  0  0
    2.3044   -4.6550    0.0000 C   0  0  0  0  0  0  0  0  0  0  0  0
   10.3700   -5.3233    0.0000 O   0  0  0  0  0  0  0  0  0  0  0  0
    1.1522   -5.3233    0.0000 O   0  0  0  0  0  0  0  0  0  0  0  0
   11.5222   -4.6550    0.0000 C   0  0  0  0  0  0  0  0  0  0  0  0
    0.0000   -4.6550    0.0000 C   0  0  0  0  0  0  0  0  0  0  0  0
  1  2  1  0  0  0  0 
  2  3  1  0  0  0  0 
  2  4  1  0  0  0  0 
  2  5  1  0  0  0  0 
  3  6  1  0  0  0  0 
  3  7  1  0  0  0  0 
  6  8  2  0  0  0  0 
  6  9  1  0  0  0  0 
  7 10  2  0  0  0  0 
  7 11  1  0  0  0  0 
  8 12  1  0  0  0  0 
 13  9  2  0  0  0  0 
 10 14  1  0  0  0  0 
 15 11  2  0  0  0  0 
 12 16  2  0  0  0  0 
 16 13  1  0  0  0  0 
 14 17  2  0  0  0  0 
 17 15  1  0  0  0  0 
 16 18  1  0  0  0  0 
 17 19  1  0  0  0  0 
 18 20  1  0  0  0  0 
 19 21  1  0  0  0  0 
M  END
> <Name>
Benzene, 1,1'-(2,2,2-trichloroethylidene)bis(4-methoxy- (9CI)

> <Source>
DSSTox2DMolFile

> <Tox>
7.607

> <CAS>
72-43-5

$$$$

  CDK

 18 19  0  0  0  0  0  0  0  0999 V2000
    3.4540   -0.0000    0.0000 Cl  0  0  0  0  0  0  0  0  0  0  0  0
    4.6054   -0.6632    0.0000 C   0  0  0  0  0  0  0  0  0  0  0  0
    4.6054   -1.9895    0.0000 C   0  0  0  0  0  0  0  0  0  0  0  0
    5.7567   -0.0000    0.0000 Cl  0  0  0  0  0  0  0  0  0  0  0  0
    5.7567   -2.6527    0.0000 C   0  0  0  0  0  0  0  0  0  0  0  0
    3.4540   -2.6527    0.0000 C   0  0  0  0  0  0  0  0  0  0  0  0
    6.9080   -1.9895    0.0000 C   0  0  0  0  0  0  0  0  0  0  0  0
    5.7567   -3.9882    0.0000 C   0  0  0  0  0  0  0  0  0  0  0  0
    3.4540   -3.9882    0.0000 C   0  0  0  0  0  0  0  0  0  0  0  0
    2.3027   -1.9895    0.0000 C   0  0  0  0  0  0  0  0  0  0  0  0
    8.0594   -2.6527    0.0000 C   0  0  0  0  0  0  0  0  0  0  0  0
    6.9080   -4.6514    0.0000 C   0  0  0  0  0  0  0  0  0  0  0  0
    2.3027   -4.6514    0.0000 C   0  0  0  0  0  0  0  0  0  0  0  0
    1.1513   -2.6527    0.0000 C   0  0  0  0  0  0  0  0  0  0  0  0
    8.0594   -3.9882    0.0000 C   0  0  0  0  0  0  0  0  0  0  0  0
    1.1513   -3.9882    0.0000 C   0  0  0  0  0  0  0  0  0  0  0  0
    9.2107   -4.6514    0.0000 Cl  0  0  0  0  0  0  0  0  0  0  0  0
    0.0000   -4.6514    0.0000 Cl  0  0  0  0  0  0  0  0  0  0  0  0
  1  2  1  0  0  0  0 
  2  3  1  0  0  0  0 
  2  4  1  0  0  0  0 
  3  5  1  0  0  0  0 
  3  6  1  0  0  0  0 
  5  7  2  0  0  0  0 
  5  8  1  0  0  0  0 
  6  9  2  0  0  0  0 
  6 10  1  0  0  0  0 
  7 11  1  0  0  0  0 
 12  8  2  0  0  0  0 
  9 13  1  0  0  0  0 
 14 10  2  0  0  0  0 
 11 15  2  0  0  0  0 
 15 12  1  0  0  0  0 
 13 16  2  0  0  0  0 
 16 14  1  0  0  0  0 
 15 17  1  0  0  0  0 
 16 18  1  0  0  0  0 
M  END
> <Name>
Benzene, 1,1'-(2,2-dichloroethylidene)bis(4-chloro- (9CI)

> <Source>
DSSTox2DMolFile

> <Tox>
4.862

> <CAS>
72-54-8

$$$$

  CDK

  3  2  0  0  0  0  0  0  0  0999 V2000
    2.6600   -0.0000    0.0000 C   0  0  0  0  0  0  0  0  0  0  0  0
    1.3300   -0.0000    0.0000 C   0  0  0  0  0  0  0  0  0  0  0  0
    0.0000   -0.0000    0.0000 N   0  0  0  0  0  0  0  0  0  0  0  0
  1  2  1  0  0  0  0 
  2  3  3  0  0  0  0 
M  END
> <Name>
Acetonitrile

> <Source>
DSSTox2DMolFile

> <Tox>
1.613

> <CAS>
75-05-8

$$$$

  CDK

  3  2  0  0  0  0  0  0  0  0999 V2000
    2.3030   -0.6656    0.0000 C   0  0  0  0  0  0  0  0  0  0  0  0
    1.1515   -0.0000    0.0000 C   0  0  0  0  0  0  0  0  0  0  0  0
    0.0000   -0.6656    0.0000 O   0  0  0  0  0  0  0  0  0  0  0  0
  1  2  1  0  0  0  0 
  2  3  2  0  0  0  0 
M  END
> <Name>
Acetaldehyde

> <Source>
DSSTox2DMolFile

> <Tox>
3.076

> <CAS>
75-07-0

$$$$

  CDK

  3  2  0  0  0  0  0  0  0  0999 V2000
    2.3030   -0.6656    0.0000 Cl  0  0  0  0  0  0  0  0  0  0  0  0
    1.1515   -0.0000    0.0000 C   0  0  0  0  0  0  0  0  0  0  0  0
    0.0000   -0.6656    0.0000 Cl  0  0  0  0  0  0  0  0  0  0  0  0
  1  2  1  0  0  0  0 
  2  3  1  0  0  0  0 
M  END
> <Name>
Methane, dichloro-

> <Source>
DSSTox2DMolFile

> <Tox>
2.424

> <CAS>
75-09-2

$$$$

  CDK

  3  3  0  0  0  0  0  0  0  0999 V2000
    0.0000   -1.1518    0.0000 C   0  0  0  0  0  0  0  0  0  0  0  0
    0.6650   -0.0000    0.0000 C   0  0  0  0  0  0  0  0  0  0  0  0
    1.3300   -1.1518    0.0000 O   0  0  0  0  0  0  0  0  0  0  0  0
  1  2  1  0  0  0  0 
  1  3  1  0  0  0  0 
  2  3  1  0  0  0  0 
M  END
> <Name>
Ethylene oxide

> <Source>
DSSTox2DMolFile

> <Tox>
2.720

> <CAS>
75-21-8

$$$$

  CDK

  4  3  0  0  0  0  0  0  0  0999 V2000
    1.9950   -0.0000    0.0000 C   0  0  0  0  0  0  0  0  0  0  0  0
    1.3292   -1.1518    0.0000 C   0  0  0  0  0  0  0  0  0  0  0  0
    1.9950   -2.3037    0.0000 Cl  0  0  0  0  0  0  0  0  0  0  0  0
    0.0000   -1.1518    0.0000 Cl  0  0  0  0  0  0  0  0  0  0  0  0
  1  2  2  0  0  0  0 
  2  3  1  0  0  0  0 
  2  4  1  0  0  0  0 
M  END
> <Name>
1,1-Dichloroethene (9CI)

> <Source>
DSSTox2DMolFile

> <Tox>
2.856

> <CAS>
75-35-4

$$$$

  CDK

  4  3  0  0  0  0  0  0  0  0999 V2000
    2.3050   -1.9938    0.0000 Cl  0  0  0  0  0  0  0  0  0  0  0  0
    1.1571   -1.3323    0.0000 C   0  0  0  0  0  0  0  0  0  0  0  0
    1.1571   -0.0000    0.0000 O   0  0  0  0  0  0  0  0  0  0  0  0
    0.0000   -1.9938    0.0000 C   0  0  0  0  0  0  0  0  0  0  0  0
  1  2  1  0  0  0  0 
  3  2  2  0  0  0  0 
  2  4  1  0  0  0  0 
M  END
> <Name>
Acetyl chloride

> <Source>
DSSTox2DMolFile

> <Tox>
3.272

> <CAS>
75-36-5

$$$$

  CDK

  4  3  0  0  0  0  0  0  0  0999 V2000
    1.9950   -0.0000    0.0000 I   0  0  0  0  0  0  0  0  0  0  0  0
    1.3292   -1.1518    0.0000 C   0  0  0  0  0  0  0  0  0  0  0  0
    1.9950   -2.3037    0.0000 I   0  0  0  0  0  0  0  0  0  0  0  0
    0.0000   -1.1518    0.0000 I   0  0  0  0  0  0  0  0  0  0  0  0
  1  2  1  0  0  0  0 
  2  3  1  0  0  0  0 
  2  4  1  0  0  0  0 
M  END
> <Name>
Methane, triiodo-

> <Source>
DSSTox2DMolFile

> <Tox>
5.130

> <CAS>
75-47-8

$$$$

  CDK

  5  4  0  0  0  0  0  0  0  0999 V2000
    1.3300   -1.3300    0.0000 C   0  0  0  0  0  0  0  0  0  0  0  0
    1.3300   -2.6600    0.0000 C   0  0  0  0  0  0  0  0  0  0  0  0
    0.0000   -1.3300    0.0000 C   0  0  0  0  0  0  0  0  0  0  0  0
    1.3300   -0.0000    0.0000 C   0  0  0  0  0  0  0  0  0  0  0  0
    2.6600   -1.3300    0.0000 O   0  0  0  0  0  0  0  0  0  0  0  0
  1  2  1  0  0  0  0 
  1  3  1  0  0  0  0 
  1  4  1  0  0  0  0 
  1  5  1  0  0  0  0 
M  END
> <Name>
2-Propanol, 2-methyl-

> <Source>
DSSTox2DMolFile

> <Tox>
1.063

> <CAS>
75-65-0

$$$$

  CDK

  6  5  0  0  0  0  0  0  0  0999 V2000
    1.1503   -1.1537    0.0000 C   0  0  0  0  0  0  0  0  0  0  0  0
    0.4870   -0.0000    0.0000 F   0  0  0  0  0  0  0  0  0  0  0  0
    1.8169   -2.3040    0.0000 F   0  0  0  0  0  0  0  0  0  0  0  0
    0.0000   -1.8169    0.0000 F   0  0  0  0  0  0  0  0  0  0  0  0
    2.3040   -0.4870    0.0000 C   0  0  0  0  0  0  0  0  0  0  0  0
    3.4542   -1.1537    0.0000 O   0  0  0  0  0  0  0  0  0  0  0  0
  1  2  1  0  0  0  0 
  1  3  1  0  0  0  0 
  1  4  1  0  0  0  0 
  1  5  1  0  0  0  0 
  5  6  1  0  0  0  0 
M  END
> <Name>
Ethanol, 2,2,2-trifluoro-

> <Source>
DSSTox2DMolFile

> <Tox>
2.925

> <CAS>
75-89-8

$$$$

  CDK

  7  6  0  0  0  0  0  0  0  0999 V2000
    0.1796   -0.0000    0.0000 C   0  0  0  0  0  0  0  0  0  0  0  0
    1.3304   -0.6652    0.0000 C   0  0  0  0  0  0  0  0  0  0  0  0
    2.4812   -0.0000    0.0000 O   0  0  0  0  0  0  0  0  0  0  0  0
    1.3304   -1.9956    0.0000 C   0  0  0  0  0  0  0  0  0  0  0  0
    2.6608   -1.9956    0.0000 C   0  0  0  0  0  0  0  0  0  0  0  0
    1.3304   -3.3260    0.0000 C   0  0  0  0  0  0  0  0  0  0  0  0
    0.0000   -1.9956    0.0000 C   0  0  0  0  0  0  0  0  0  0  0  0
  1  2  1  0  0  0  0 
  2  3  2  0  0  0  0 
  2  4  1  0  0  0  0 
  4  5  1  0  0  0  0 
  4  6  1  0  0  0  0 
  4  7  1  0  0  0  0 
M  END
> <Name>
2-Butanone, 3,3-dimethyl-

> <Source>
DSSTox2DMolFile

> <Tox>
3.061

> <CAS>
75-97-8

$$$$

  CDK

  7  6  0  0  0  0  0  0  0  0999 V2000
    0.0000   -1.9956    0.0000 C   0  0  0  0  0  0  0  0  0  0  0  0
    1.3304   -1.9956    0.0000 C   0  0  0  0  0  0  0  0  0  0  0  0
    2.6608   -1.9956    0.0000 Cl  0  0  0  0  0  0  0  0  0  0  0  0
    1.3304   -3.3260    0.0000 Cl  0  0  0  0  0  0  0  0  0  0  0  0
    1.3304   -0.6652    0.0000 C   0  0  0  0  0  0  0  0  0  0  0  0
    0.1796   -0.0000    0.0000 O   0  0  0  0  0  0  0  0  0  0  0  0
    2.4812   -0.0000    0.0000 O   0  0  0  0  0  0  0  0  0  0  0  0
  1  2  1  0  0  0  0 
  2  3  1  0  0  0  0 
  2  4  1  0  0  0  0 
  2  5  1  0  0  0  0 
  5  6  1  0  0  0  0 
  5  7  2  0  0  0  0 
M  END
> <Name>
Propanoic acid, 2,2-dichloro-

> <Source>
DSSTox2DMolFile

> <Tox>
2.693

> <CAS>
75-99-0

$$$$

  CDK

  7  6  0  0  0  0  0  0  0  0999 V2000
    2.6608   -1.9956    0.0000 Cl  0  0  0  0  0  0  0  0  0  0  0  0
    1.3304   -1.9956    0.0000 C   0  0  0  0  0  0  0  0  0  0  0  0
    1.3304   -0.6652    0.0000 C   0  0  0  0  0  0  0  0  0  0  0  0
    1.3304   -3.3260    0.0000 Cl  0  0  0  0  0  0  0  0  0  0  0  0
    0.0000   -1.9956    0.0000 Cl  0  0  0  0  0  0  0  0  0  0  0  0
    0.1796   -0.0000    0.0000 Cl  0  0  0  0  0  0  0  0  0  0  0  0
    2.4812   -0.0000    0.0000 Cl  0  0  0  0  0  0  0  0  0  0  0  0
  1  2  1  0  0  0  0 
  2  3  1  0  0  0  0 
  2  4  1  0  0  0  0 
  2  5  1  0  0  0  0 
  3  6  1  0  0  0  0 
  3  7  1  0  0  0  0 
M  END
> <Name>
Ethane, pentachloro-

> <Source>
DSSTox2DMolFile

> <Tox>
4.429

> <CAS>
76-01-7

$$$$

  CDK

  7  6  0  0  0  0  0  0  0  0999 V2000
    2.6608   -1.9956    0.0000 Cl  0  0  0  0  0  0  0  0  0  0  0  0
    1.3304   -1.9956    0.0000 C   0  0  0  0  0  0  0  0  0  0  0  0
    1.3304   -0.6652    0.0000 C   0  0  0  0  0  0  0  0  0  0  0  0
    1.3304   -3.3260    0.0000 Cl  0  0  0  0  0  0  0  0  0  0  0  0
    0.0000   -1.9956    0.0000 Cl  0  0  0  0  0  0  0  0  0  0  0  0
    0.1796   -0.0000    0.0000 O   0  0  0  0  0  0  0  0  0  0  0  0
    2.4812   -0.0000    0.0000 O   0  0  0  0  0  0  0  0  0  0  0  0
  1  2  1  0  0  0  0 
  2  3  1  0  0  0  0 
  2  4  1  0  0  0  0 
  2  5  1  0  0  0  0 
  3  6  2  0  0  0  0 
  3  7  1  0  0  0  0 
M  END
> <Name>
Acetic acid, trichloro-

> <Source>
DSSTox2DMolFile

> <Tox>
1.912

> <CAS>
76-03-9

$$$$

  CDK

 12 13  0  0  0  0  0  0  0  0999 V2000
    1.6656   -0.5805   -0.2159 C   0  0  0  0  0  0  0  0  0  0  0  0
    0.3266   -1.2918    0.1004 C   0  0  0  0  0  0  0  0  0  0  0  0
    2.3599   -0.4518    1.1651 C   0  0  0  0  0  0  0  0  0  0  0  0
    1.1556    0.8820   -0.4730 C   0  0  0  0  0  0  0  0  0  0  0  0
    2.5077   -1.2115   -1.2875 C   0  0  0  0  0  0  0  0  0  0  0  0
   -0.4823   -0.2829    0.9053 C   0  0  0  0  0  0  0  0  0  0  0  0
    0.0018   -2.4177   -0.1858 O   0  0  0  0  0  0  0  0  0  0  0  0
    1.5533    0.6478    1.8879 C   0  0  0  0  0  0  0  0  0  0  0  0
    0.4046    0.9578    0.9013 C   0  0  0  0  0  0  0  0  0  0  0  0
    0.2636    1.0044   -1.7006 C   0  0  0  0  0  0  0  0  0  0  0  0
    2.2514    1.9342   -0.5877 C   0  0  0  0  0  0  0  0  0  0  0  0
   -2.1094    0.1515   -0.0423 Br  0  0  0  0  0  0  0  0  0  0  0  0
  1  2  1  0  0  0  0 
  1  3  1  0  0  0  0 
  1  4  1  0  0  0  0 
  1  5  1  0  0  0  0 
  2  6  1  0  0  0  0 
  2  7  2  0  0  0  0 
  8  3  1  0  0  0  0 
  9  4  1  0  0  0  0 
  4 10  1  0  0  0  0 
  4 11  1  0  0  0  0 
  6  9  1  0  0  0  0 
  6 12  1  0  0  0  0 
  9  8  1  0  0  0  0 
M  END
> <Name>
Bicyclo(2.2.1)heptan-2-one, 3-bromo-1,7,7-trimethyl-

> <Source>
DougDB3DMolFile

> <Tox>
3.528

> <CAS>
76-29-9

$$$$

  CDK

 17 19  0  0  0  0  0  0  0  0999 V2000
    3.2392   -3.7118    0.0000 C   0  0  0  0  0  0  0  0  0  0  0  0
    3.7637   -1.2104    0.0000 C   0  0  0  0  0  0  0  0  0  0  0  0
    4.1845   -4.2479    0.0000 C   0  0  0  0  0  0  0  0  0  0  0  0
    1.9481   -4.1787    0.0000 C   0  0  0  0  0  0  0  0  0  0  0  0
    2.3747   -4.8358    0.0000 Cl  0  0  0  0  0  0  0  0  0  0  0  0
    3.1297   -2.2651    0.0000 C   0  0  0  0  0  0  0  0  0  0  0  0
    4.6859   -0.4957    0.0000 Cl  0  0  0  0  0  0  0  0  0  0  0  0
    3.6081   -0.0000    0.0000 Cl  0  0  0  0  0  0  0  0  0  0  0  0
    4.2248   -2.9337    0.0000 C   0  0  0  0  0  0  0  0  0  0  0  0
    4.4669   -5.3026    0.0000 Cl  0  0  0  0  0  0  0  0  0  0  0  0
    1.9885   -2.8646    0.0000 C   0  0  0  0  0  0  0  0  0  0  0  0
    0.6974   -4.5418    0.0000 C   0  0  0  0  0  0  0  0  0  0  0  0
    2.2536   -1.3141    0.0000 Cl  0  0  0  0  0  0  0  0  0  0  0  0
    5.3372   -2.5476    0.0000 Cl  0  0  0  0  0  0  0  0  0  0  0  0
    0.7666   -2.4438    0.0000 C   0  0  0  0  0  0  0  0  0  0  0  0
    0.0000   -3.4582    0.0000 C   0  0  0  0  0  0  0  0  0  0  0  0
    0.2536   -5.7637    0.0000 Cl  0  0  0  0  0  0  0  0  0  0  0  0
  1  2  1  0  0  0  0 
  1  3  1  0  0  0  0 
  1  4  1  0  0  0  0 
  1  5  1  0  0  0  0 
  6  2  1  0  0  0  0 
  2  7  1  0  0  0  0 
  2  8  1  0  0  0  0 
  3  9  2  0  0  0  0 
  3 10  1  0  0  0  0 
  4 11  1  0  0  0  0 
  4 12  1  0  0  0  0 
  6 13  1  0  0  0  0 
  6 11  1  0  0  0  0 
  6  9  1  0  0  0  0 
  9 14  1  0  0  0  0 
 11 15  1  0  0  0  0 
 16 12  1  0  0  0  0 
 12 17  1  0  0  0  0 
 15 16  2  0  0  0  0 
M  END
> <Name>
4,7-Methano-1H-indene, 1,4,5,6,7,8,8-heptachloro-3a,4,7,7a-tetrahydro-

> <Source>
DSSTox2DMolFile

> <Tox>
6.752

> <CAS>
76-44-8

$$$$

  CDK

 11 11  0  0  0  0  0  0  0  0999 V2000
    3.4265   -0.1676    0.0000 Cl  0  0  0  0  0  0  0  0  0  0  0  0
    3.2868   -1.4898    0.0000 C   0  0  0  0  0  0  0  0  0  0  0  0
    3.4265   -2.8119    0.0000 C   0  0  0  0  0  0  0  0  0  0  0  0
    1.9879   -1.2151    0.0000 C   0  0  0  0  0  0  0  0  0  0  0  0
    4.6183   -1.4898    0.0000 Cl  0  0  0  0  0  0  0  0  0  0  0  0
    2.2114   -3.3566    0.0000 C   0  0  0  0  0  0  0  0  0  0  0  0
    4.5810   -3.4777    0.0000 Cl  0  0  0  0  0  0  0  0  0  0  0  0
    1.3222   -2.3650    0.0000 C   0  0  0  0  0  0  0  0  0  0  0  0
    1.4479   -0.0000    0.0000 Cl  0  0  0  0  0  0  0  0  0  0  0  0
    1.9367   -4.6555    0.0000 Cl  0  0  0  0  0  0  0  0  0  0  0  0
    0.0000   -2.5047    0.0000 Cl  0  0  0  0  0  0  0  0  0  0  0  0
  1  2  1  0  0  0  0 
  2  3  1  0  0  0  0 
  2  4  1  0  0  0  0 
  2  5  1  0  0  0  0 
  3  6  2  0  0  0  0 
  3  7  1  0  0  0  0 
  8  4  2  0  0  0  0 
  4  9  1  0  0  0  0 
  6  8  1  0  0  0  0 
  6 10  1  0  0  0  0 
  8 11  1  0  0  0  0 
M  END
> <Name>
1,3-Cyclopentadiene, 1,2,3,4,5,5-hexachloro-

> <Source>
DSSTox2DMolFile

> <Tox>
6.604

> <CAS>
77-47-4

$$$$

  CDK

  9  9  0  0  0  0  0  0  0  0999 V2000
    1.3208   -4.6181    0.0000 C   0  0  0  0  0  0  0  0  0  0  0  0
    1.3208   -3.2881    0.0000 C   0  0  0  0  0  0  0  0  0  0  0  0
    0.0000   -3.4266    0.0000 C   0  0  0  0  0  0  0  0  0  0  0  0
    1.0483   -1.9858    0.0000 N   0  0  0  0  0  0  0  0  0  0  0  0
    2.6462   -3.4266    0.0000 C   0  0  0  0  0  0  0  0  0  0  0  0
    2.1982   -1.3208    0.0000 C   0  0  0  0  0  0  0  0  0  0  0  0
    3.1865   -2.2121    0.0000 N   0  0  0  0  0  0  0  0  0  0  0  0
    3.3112   -4.5811    0.0000 O   0  0  0  0  0  0  0  0  0  0  0  0
    2.3368   -0.0000    0.0000 O   0  0  0  0  0  0  0  0  0  0  0  0
  1  2  1  0  0  0  0 
  2  3  1  0  0  0  0 
  2  4  1  0  0  0  0 
  2  5  1  0  0  0  0 
  4  6  1  0  0  0  0 
  7  5  1  0  0  0  0 
  5  8  2  0  0  0  0 
  6  9  2  0  0  0  0 
  6  7  1  0  0  0  0 
M  END
> <Name>
2,4-Imidazolidinedione, 5,5-dimethyl-

> <Source>
DSSTox2DMolFile

> <Tox>
0.890

> <CAS>
77-71-4

$$$$

  CDK

 10 12  0  0  0  0  0  0  0  0999 V2000
    1.3067   -1.7293    0.0000 C   0  0  0  0  0  0  0  0  0  0  0  0
    1.2144   -2.7591    0.0000 C   0  0  0  0  0  0  0  0  0  0  0  0
    3.1282   -0.9375    0.0000 C   0  0  0  0  0  0  0  0  0  0  0  0
    0.5586   -1.4961    0.0000 C   0  0  0  0  0  0  0  0  0  0  0  0
    2.8951   -1.8216    0.0000 C   0  0  0  0  0  0  0  0  0  0  0  0
    0.4663   -2.9437    0.0000 C   0  0  0  0  0  0  0  0  0  0  0  0
    2.4773   -0.0000    0.0000 C   0  0  0  0  0  0  0  0  0  0  0  0
    4.8575   -1.5884    0.0000 C   0  0  0  0  0  0  0  0  0  0  0  0
    0.0000   -2.1956    0.0000 C   0  0  0  0  0  0  0  0  0  0  0  0
    4.6244   -2.5211    0.0000 C   0  0  0  0  0  0  0  0  0  0  0  0
  1  2  1  0  0  0  0 
  1  3  1  0  0  0  0 
  1  4  1  0  0  0  0 
  2  5  1  0  0  0  0 
  2  6  1  0  0  0  0 
  3  7  1  0  0  0  0 
  3  8  1  0  0  0  0 
  4  9  2  0  0  0  0 
  5  7  1  0  0  0  0 
  5 10  1  0  0  0  0 
  6  9  1  0  0  0  0 
 10  8  2  0  0  0  0 
M  END
> <Name>
4,7-Methano-1H-indene, 3a,4,7,7a-tetrahydro-

> <Source>
DSSTox2DMolFile

> <Tox>
3.407

> <CAS>
77-73-6

$$$$

  CDK

  7  6  0  0  0  0  0  0  0  0999 V2000
    4.2973   -2.3034    0.0000 C   0  0  0  0  0  0  0  0  0  0  0  0
    2.9694   -2.3034    0.0000 C   0  0  0  0  0  0  0  0  0  0  0  0
    2.3034   -1.1517    0.0000 C   0  0  0  0  0  0  0  0  0  0  0  0
    3.4550   -0.4856    0.0000 O   0  0  0  0  0  0  0  0  0  0  0  0
    1.6373   -0.0000    0.0000 C   0  0  0  0  0  0  0  0  0  0  0  0
    1.1517   -1.8178    0.0000 C   0  0  0  0  0  0  0  0  0  0  0  0
    0.0000   -1.1517    0.0000 C   0  0  0  0  0  0  0  0  0  0  0  0
  1  2  1  0  0  0  0 
  2  3  1  0  0  0  0 
  3  4  1  0  0  0  0 
  3  5  1  0  0  0  0 
  3  6  1  0  0  0  0 
  6  7  1  0  0  0  0 
M  END
> <Name>
3-Pentanol, 3-methyl-

> <Source>
DSSTox2DMolFile

> <Tox>
2.182

> <CAS>
77-74-7

$$$$

  CDK

  7  6  0  0  0  0  0  0  0  0999 V2000
    4.2985   -2.4802    0.0000 C   0  0  0  0  0  0  0  0  0  0  0  0
    3.1465   -1.8140    0.0000 C   0  0  0  0  0  0  0  0  0  0  0  0
    1.9945   -1.1520    0.0000 C   0  0  0  0  0  0  0  0  0  0  0  0
    2.6608   -0.0000    0.0000 O   0  0  0  0  0  0  0  0  0  0  0  0
    0.8425   -0.4857    0.0000 C   0  0  0  0  0  0  0  0  0  0  0  0
    1.3282   -2.3040    0.0000 C   0  0  0  0  0  0  0  0  0  0  0  0
    0.0000   -2.3040    0.0000 C   0  0  0  0  0  0  0  0  0  0  0  0
  1  2  3  0  0  0  0 
  2  3  1  0  0  0  0 
  3  4  1  0  0  0  0 
  3  5  1  0  0  0  0 
  3  6  1  0  0  0  0 
  6  7  1  0  0  0  0 
M  END
> <Name>
1-Pentyn-3-ol, 3-methyl-

> <Source>
DSSTox2DMolFile

> <Tox>
1.905

> <CAS>
77-75-8

$$$$

  CDK

  9  9  0  0  0  0  0  0  0  0999 V2000
    4.9239   -1.2507    0.0000 C   0  0  0  0  0  0  0  0  0  0  0  0
    4.9239   -2.5801    0.0000 C   0  0  0  0  0  0  0  0  0  0  0  0
    3.7717   -0.5859    0.0000 C   0  0  0  0  0  0  0  0  0  0  0  0
    3.7717   -3.2449    0.0000 C   0  0  0  0  0  0  0  0  0  0  0  0
    2.6195   -1.2507    0.0000 C   0  0  0  0  0  0  0  0  0  0  0  0
    2.6195   -2.5801    0.0000 C   0  0  0  0  0  0  0  0  0  0  0  0
    1.3098   -1.4821    0.0000 C   0  0  0  0  0  0  0  0  0  0  0  0
    2.1665   -0.0000    0.0000 O   0  0  0  0  0  0  0  0  0  0  0  0
    0.0000   -1.7135    0.0000 C   0  0  0  0  0  0  0  0  0  0  0  0
  1  2  1  0  0  0  0 
  1  3  1  0  0  0  0 
  2  4  1  0  0  0  0 
  5  3  1  0  0  0  0 
  4  6  1  0  0  0  0 
  6  5  1  0  0  0  0 
  5  7  1  0  0  0  0 
  5  8  1  0  0  0  0 
  7  9  3  0  0  0  0 
M  END
> <Name>
Cyclohexanol, 1-ethynyl-

> <Source>
DSSTox2DMolFile

> <Tox>
2.686

> <CAS>
78-27-3

$$$$

  CDK

 24 24  0  0  0  0  0  0  0  0999 V2000
    7.3016   -4.7827    0.0000 S   0  0  0  0  0  0  0  0  0  0  0  0
    7.3016   -3.4542    0.0000 P   0  0  0  0  0  0  0  0  0  0  0  0
    5.9837   -3.4542    0.0000 S   0  0  0  0  0  0  0  0  0  0  0  0
    7.3016   -2.1150    0.0000 O   0  0  0  0  0  0  0  0  0  0  0  0
    8.6408   -3.4542    0.0000 O   0  0  0  0  0  0  0  0  0  0  0  0
    5.3141   -2.2957    0.0000 C   0  0  0  0  0  0  0  0  0  0  0  0
    8.4601   -1.4561    0.0000 C   0  0  0  0  0  0  0  0  0  0  0  0
    9.2997   -4.6020    0.0000 C   0  0  0  0  0  0  0  0  0  0  0  0
    3.9856   -2.2957    0.0000 C   0  0  0  0  0  0  0  0  0  0  0  0
    5.9837   -1.1479    0.0000 O   0  0  0  0  0  0  0  0  0  0  0  0
    8.4601   -0.1275    0.0000 C   0  0  0  0  0  0  0  0  0  0  0  0
   10.6283   -4.6020    0.0000 C   0  0  0  0  0  0  0  0  0  0  0  0
    3.3160   -3.4542    0.0000 S   0  0  0  0  0  0  0  0  0  0  0  0
    3.3160   -1.1479    0.0000 O   0  0  0  0  0  0  0  0  0  0  0  0
    5.3141   -0.0000    0.0000 C   0  0  0  0  0  0  0  0  0  0  0  0
    1.9875   -3.4542    0.0000 P   0  0  0  0  0  0  0  0  0  0  0  0
    3.9856   -0.0000    0.0000 C   0  0  0  0  0  0  0  0  0  0  0  0
    1.9875   -2.1150    0.0000 S   0  0  0  0  0  0  0  0  0  0  0  0
    1.9875   -4.7827    0.0000 O   0  0  0  0  0  0  0  0  0  0  0  0
    0.6590   -3.4542    0.0000 O   0  0  0  0  0  0  0  0  0  0  0  0
    3.1460   -5.4417    0.0000 C   0  0  0  0  0  0  0  0  0  0  0  0
    0.0000   -4.6020    0.0000 C   0  0  0  0  0  0  0  0  0  0  0  0
    3.1460   -6.7702    0.0000 C   0  0  0  0  0  0  0  0  0  0  0  0
    0.6590   -5.7499    0.0000 C   0  0  0  0  0  0  0  0  0  0  0  0
  1  2  2  0  0  0  0 
  2  3  1  0  0  0  0 
  2  4  1  0  0  0  0 
  2  5  1  0  0  0  0 
  3  6  1  0  0  0  0 
  4  7  1  0  0  0  0 
  5  8  1  0  0  0  0 
  6  9  1  0  0  0  0 
  6 10  1  0  0  0  0 
  7 11  1  0  0  0  0 
  8 12  1  0  0  0  0 
  9 13  1  0  0  0  0 
  9 14  1  0  0  0  0 
 15 10  1  0  0  0  0 
 13 16  1  0  0  0  0 
 14 17  1  0  0  0  0 
 17 15  1  0  0  0  0 
 16 18  2  0  0  0  0 
 16 19  1  0  0  0  0 
 16 20  1  0  0  0  0 
 19 21  1  0  0  0  0 
 20 22  1  0  0  0  0 
 21 23  1  0  0  0  0 
 22 24  1  0  0  0  0 
M  END
> <Name>
A mixture consisting essentially of cis- and trans-S,S'-5,5'-p-dioxane-2,3-diyl bis(O,O-diethyl phosphorodithioate)

> <Source>
DSSTox2DMolFile

> <Tox>
4.659

> <CAS>
78-34-2

$$$$

  CDK

 26 25  0  0  0  0  0  0  0  0999 V2000
    7.9690   -0.0000    0.0000 C   0  0  0  0  0  0  0  0  0  0  0  0
    8.6388   -1.1507    0.0000 C   0  0  0  0  0  0  0  0  0  0  0  0
    7.9690   -2.3014    0.0000 C   0  0  0  0  0  0  0  0  0  0  0  0
    8.6388   -3.4521    0.0000 C   0  0  0  0  0  0  0  0  0  0  0  0
    7.9690   -4.6028    0.0000 O   0  0  0  0  0  0  0  0  0  0  0  0
    8.6388   -5.7535    0.0000 C   0  0  0  0  0  0  0  0  0  0  0  0
    7.9690   -6.9042    0.0000 C   0  0  0  0  0  0  0  0  0  0  0  0
    8.6388   -8.0548    0.0000 O   0  0  0  0  0  0  0  0  0  0  0  0
    7.9690   -9.2055    0.0000 P   0  0  0  0  0  0  0  0  0  0  0  0
    6.8183   -8.5357    0.0000 O   0  0  0  0  0  0  0  0  0  0  0  0
    9.1197   -9.8753    0.0000 O   0  0  0  0  0  0  0  0  0  0  0  0
    7.2992  -10.3562    0.0000 O   0  0  0  0  0  0  0  0  0  0  0  0
   10.2704   -9.2055    0.0000 C   0  0  0  0  0  0  0  0  0  0  0  0
    5.9767  -10.3562    0.0000 C   0  0  0  0  0  0  0  0  0  0  0  0
   11.4211   -9.8753    0.0000 C   0  0  0  0  0  0  0  0  0  0  0  0
    5.3069   -9.2055    0.0000 C   0  0  0  0  0  0  0  0  0  0  0  0
   12.5717   -9.2055    0.0000 O   0  0  0  0  0  0  0  0  0  0  0  0
    3.9845   -9.2055    0.0000 O   0  0  0  0  0  0  0  0  0  0  0  0
   13.7224   -9.8753    0.0000 C   0  0  0  0  0  0  0  0  0  0  0  0
    3.3147   -8.0548    0.0000 C   0  0  0  0  0  0  0  0  0  0  0  0
   14.8731   -9.2055    0.0000 C   0  0  0  0  0  0  0  0  0  0  0  0
    1.9922   -8.0548    0.0000 C   0  0  0  0  0  0  0  0  0  0  0  0
   16.0238   -9.8753    0.0000 C   0  0  0  0  0  0  0  0  0  0  0  0
    1.3224   -6.9042    0.0000 C   0  0  0  0  0  0  0  0  0  0  0  0
   17.1745   -9.2055    0.0000 C   0  0  0  0  0  0  0  0  0  0  0  0
    0.0000   -6.9042    0.0000 C   0  0  0  0  0  0  0  0  0  0  0  0
  1  2  1  0  0  0  0 
  2  3  1  0  0  0  0 
  3  4  1  0  0  0  0 
  4  5  1  0  0  0  0 
  5  6  1  0  0  0  0 
  6  7  1  0  0  0  0 
  7  8  1  0  0  0  0 
  8  9  1  0  0  0  0 
  9 10  2  0  0  0  0 
  9 11  1  0  0  0  0 
  9 12  1  0  0  0  0 
 11 13  1  0  0  0  0 
 12 14  1  0  0  0  0 
 13 15  1  0  0  0  0 
 14 16  1  0  0  0  0 
 15 17  1  0  0  0  0 
 16 18  1  0  0  0  0 
 17 19  1  0  0  0  0 
 18 20  1  0  0  0  0 
 19 21  1  0  0  0  0 
 20 22  1  0  0  0  0 
 21 23  1  0  0  0  0 
 22 24  1  0  0  0  0 
 23 25  1  0  0  0  0 
 24 26  1  0  0  0  0 
M  END
> <Name>
Ethanol, 2-butoxy-, phosphate (3:1)

> <Source>
DSSTox2DMolFile

> <Tox>
4.551

> <CAS>
78-51-3

$$$$

  CDK

 10 10  0  0  0  0  0  0  0  0999 V2000
    0.8533   -4.5763    0.0000 C   0  0  0  0  0  0  0  0  0  0  0  0
    1.3109   -3.3274    0.0000 C   0  0  0  0  0  0  0  0  0  0  0  0
    1.3109   -1.9974    0.0000 C   0  0  0  0  0  0  0  0  0  0  0  0
    2.4645   -3.9900    0.0000 C   0  0  0  0  0  0  0  0  0  0  0  0
    0.0000   -3.0938    0.0000 C   0  0  0  0  0  0  0  0  0  0  0  0
    2.4645   -1.3300    0.0000 C   0  0  0  0  0  0  0  0  0  0  0  0
    3.6134   -3.3274    0.0000 C   0  0  0  0  0  0  0  0  0  0  0  0
    3.6134   -1.9974    0.0000 C   0  0  0  0  0  0  0  0  0  0  0  0
    2.4645   -0.0000    0.0000 C   0  0  0  0  0  0  0  0  0  0  0  0
    4.7670   -3.9900    0.0000 O   0  0  0  0  0  0  0  0  0  0  0  0
  1  2  1  0  0  0  0 
  2  3  1  0  0  0  0 
  2  4  1  0  0  0  0 
  2  5  1  0  0  0  0 
  3  6  1  0  0  0  0 
  7  4  1  0  0  0  0 
  6  8  2  0  0  0  0 
  6  9  1  0  0  0  0 
  8  7  1  0  0  0  0 
  7 10  2  0  0  0  0 
M  END
> <Name>
2-Cyclohexen-1-one, 3,5,5-trimethyl-

> <Source>
DSSTox2DMolFile

> <Tox>
2.737

> <CAS>
78-59-1

$$$$

  CDK

  5  4  0  0  0  0  0  0  0  0999 V2000
    3.4567   -1.9945    0.0000 C   0  0  0  0  0  0  0  0  0  0  0  0
    2.3056   -1.3308    0.0000 C   0  0  0  0  0  0  0  0  0  0  0  0
    2.3056   -0.0000    0.0000 C   0  0  0  0  0  0  0  0  0  0  0  0
    1.1511   -1.9945    0.0000 C   0  0  0  0  0  0  0  0  0  0  0  0
    0.0000   -1.3308    0.0000 C   0  0  0  0  0  0  0  0  0  0  0  0
  1  2  1  0  0  0  0 
  2  3  2  0  0  0  0 
  2  4  1  0  0  0  0 
  4  5  2  0  0  0  0 
M  END
> <Name>
1,3-Butadiene, 2-methyl-

> <Source>
DSSTox2DMolFile

> <Tox>
2.952

> <CAS>
78-79-5

$$$$

  CDK

  5  4  0  0  0  0  0  0  0  0999 V2000
    0.0000   -1.3308    0.0000 O   0  0  0  0  0  0  0  0  0  0  0  0
    1.1511   -1.9945    0.0000 C   0  0  0  0  0  0  0  0  0  0  0  0
    2.3056   -1.3308    0.0000 C   0  0  0  0  0  0  0  0  0  0  0  0
    2.3056   -0.0000    0.0000 C   0  0  0  0  0  0  0  0  0  0  0  0
    3.4567   -1.9945    0.0000 C   0  0  0  0  0  0  0  0  0  0  0  0
  1  2  1  0  0  0  0 
  2  3  1  0  0  0  0 
  3  4  1  0  0  0  0 
  3  5  1  0  0  0  0 
M  END
> <Name>
1-Propanol, 2-methyl-

> <Source>
DSSTox2DMolFile

> <Tox>
1.703

> <CAS>
78-83-1

$$$$

  CDK

  5  4  0  0  0  0  0  0  0  0999 V2000
    3.4567   -1.9945    0.0000 C   0  0  0  0  0  0  0  0  0  0  0  0
    2.3056   -1.3308    0.0000 C   0  0  0  0  0  0  0  0  0  0  0  0
    1.1511   -1.9945    0.0000 C   0  0  0  0  0  0  0  0  0  0  0  0
    2.3056   -0.0000    0.0000 Cl  0  0  0  0  0  0  0  0  0  0  0  0
    0.0000   -1.3308    0.0000 Cl  0  0  0  0  0  0  0  0  0  0  0  0
  1  2  1  0  0  0  0 
  2  3  1  0  0  0  0 
  2  4  1  0  0  0  0 
  3  5  1  0  0  0  0 
M  END
> <Name>
Propane, 1,2-dichloro-

> <Source>
DSSTox2DMolFile

> <Tox>
2.928

> <CAS>
78-87-5

$$$$

  CDK

  5  4  0  0  0  0  0  0  0  0999 V2000
    0.0000   -1.3308    0.0000 N   0  0  0  0  0  0  0  0  0  0  0  0
    1.1511   -1.9945    0.0000 C   0  0  0  0  0  0  0  0  0  0  0  0
    2.3056   -1.3308    0.0000 C   0  0  0  0  0  0  0  0  0  0  0  0
    2.3056   -0.0000    0.0000 N   0  0  0  0  0  0  0  0  0  0  0  0
    3.4567   -1.9945    0.0000 C   0  0  0  0  0  0  0  0  0  0  0  0
  1  2  1  0  0  0  0 
  2  3  1  0  0  0  0 
  3  4  1  0  0  0  0 
  3  5  1  0  0  0  0 
M  END
> <Name>
1,2-Propanediamine

> <Source>
DSSTox2DMolFile

> <Tox>
1.817

> <CAS>
78-90-0

$$$$

  CDK

  5  4  0  0  0  0  0  0  0  0999 V2000
    3.4567   -1.9945    0.0000 C   0  0  0  0  0  0  0  0  0  0  0  0
    2.3056   -1.3308    0.0000 C   0  0  0  0  0  0  0  0  0  0  0  0
    1.1511   -1.9945    0.0000 C   0  0  0  0  0  0  0  0  0  0  0  0
    2.3056   -0.0000    0.0000 O   0  0  0  0  0  0  0  0  0  0  0  0
    0.0000   -1.3308    0.0000 C   0  0  0  0  0  0  0  0  0  0  0  0
  1  2  1  0  0  0  0 
  2  3  1  0  0  0  0 
  2  4  2  0  0  0  0 
  3  5  1  0  0  0  0 
M  END
> <Name>
Methyl ethyl ketone

> <Source>
DSSTox2DMolFile

> <Tox>
1.350

> <CAS>
78-93-3

$$$$

  CDK

  5  4  0  0  0  0  0  0  0  0999 V2000
    1.9939   -3.4556    0.0000 C   0  0  0  0  0  0  0  0  0  0  0  0
    1.3304   -2.3049    0.0000 C   0  0  0  0  0  0  0  0  0  0  0  0
    0.0000   -2.3049    0.0000 O   0  0  0  0  0  0  0  0  0  0  0  0
    1.9939   -1.1507    0.0000 C   0  0  0  0  0  0  0  0  0  0  0  0
    2.6608   -0.0000    0.0000 N   0  0  0  0  0  0  0  0  0  0  0  0
  1  2  1  0  0  0  0 
  2  3  1  0  0  0  0 
  2  4  1  0  0  0  0 
  4  5  3  0  0  0  0 
M  END
> <Name>
(1)-2-Hydroxypropiononitrile

> <Source>
DSSTox2DMolFile

> <Tox>
4.897

> <CAS>
78-97-7

$$$$

  CDK

  5  4  0  0  0  0  0  0  0  0999 V2000
    3.4567   -1.9945    0.0000 Cl  0  0  0  0  0  0  0  0  0  0  0  0
    2.3056   -1.3308    0.0000 C   0  0  0  0  0  0  0  0  0  0  0  0
    1.1511   -1.9945    0.0000 C   0  0  0  0  0  0  0  0  0  0  0  0
    2.3056   -0.0000    0.0000 Cl  0  0  0  0  0  0  0  0  0  0  0  0
    0.0000   -1.3308    0.0000 Cl  0  0  0  0  0  0  0  0  0  0  0  0
  1  2  1  0  0  0  0 
  2  3  1  0  0  0  0 
  2  4  1  0  0  0  0 
  3  5  1  0  0  0  0 
M  END
> <Name>
Ethane, 1,1,2-trichloro-

> <Source>
DSSTox2DMolFile

> <Tox>
3.213

> <CAS>
79-00-5

$$$$

  CDK

  5  4  0  0  0  0  0  0  0  0999 V2000
    3.4567   -1.9945    0.0000 Cl  0  0  0  0  0  0  0  0  0  0  0  0
    2.3056   -1.3308    0.0000 C   0  0  0  0  0  0  0  0  0  0  0  0
    1.1511   -1.9945    0.0000 C   0  0  0  0  0  0  0  0  0  0  0  0
    2.3056   -0.0000    0.0000 Cl  0  0  0  0  0  0  0  0  0  0  0  0
    0.0000   -1.3308    0.0000 Cl  0  0  0  0  0  0  0  0  0  0  0  0
  1  2  1  0  0  0  0 
  2  3  2  0  0  0  0 
  2  4  1  0  0  0  0 
  3  5  1  0  0  0  0 
M  END
> <Name>
1,1,2-Trichloroethylene

> <Source>
DSSTox2DMolFile

> <Tox>
3.470

> <CAS>
79-01-6

$$$$

  CDK

  5  4  0  0  0  0  0  0  0  0999 V2000
    3.4567   -1.9945    0.0000 N   0  0  0  0  0  0  0  0  0  0  0  0
    2.3056   -1.3308    0.0000 C   0  0  0  0  0  0  0  0  0  0  0  0
    2.3056   -0.0000    0.0000 O   0  0  0  0  0  0  0  0  0  0  0  0
    1.1511   -1.9945    0.0000 C   0  0  0  0  0  0  0  0  0  0  0  0
    0.0000   -1.3308    0.0000 C   0  0  0  0  0  0  0  0  0  0  0  0
  1  2  1  0  0  0  0 
  2  3  2  0  0  0  0 
  2  4  1  0  0  0  0 
  4  5  2  0  0  0  0 
M  END
> <Name>
2-Propenamide

> <Source>
DSSTox2DMolFile

> <Tox>
2.793

> <CAS>
79-06-1

$$$$

  CDK

  5  4  0  0  0  0  0  0  0  0999 V2000
    0.0000   -1.9945    0.0000 N   0  0  0  0  0  0  0  0  0  0  0  0
    1.1511   -1.3308    0.0000 C   0  0  0  0  0  0  0  0  0  0  0  0
    1.1511   -0.0000    0.0000 S   0  0  0  0  0  0  0  0  0  0  0  0
    2.3056   -1.9945    0.0000 N   0  0  0  0  0  0  0  0  0  0  0  0
    3.4567   -1.3308    0.0000 N   0  0  0  0  0  0  0  0  0  0  0  0
  1  2  1  0  0  0  0 
  2  3  2  0  0  0  0 
  2  4  1  0  0  0  0 
  4  5  1  0  0  0  0 
M  END
> <Name>
Hydrazinecarbothioamide

> <Source>
DSSTox2DMolFile

> <Tox>
3.642

> <CAS>
79-19-6

$$$$

  CDK

  5  4  0  0  0  0  0  0  0  0999 V2000
    3.4567   -1.9945    0.0000 C   0  0  0  0  0  0  0  0  0  0  0  0
    2.3056   -1.3308    0.0000 C   0  0  0  0  0  0  0  0  0  0  0  0
    2.3056   -0.0000    0.0000 O   0  0  0  0  0  0  0  0  0  0  0  0
    1.1511   -1.9945    0.0000 O   0  0  0  0  0  0  0  0  0  0  0  0
    0.0000   -1.3308    0.0000 C   0  0  0  0  0  0  0  0  0  0  0  0
  1  2  1  0  0  0  0 
  2  3  2  0  0  0  0 
  2  4  1  0  0  0  0 
  4  5  1  0  0  0  0 
M  END
> <Name>
Acetic acid, methyl ester

> <Source>
DSSTox2DMolFile

> <Tox>
2.269

> <CAS>
79-20-9

$$$$

  CDK

  6  5  0  0  0  0  0  0  0  0999 V2000
    1.3307   -0.0000    0.0000 Cl  0  0  0  0  0  0  0  0  0  0  0  0
    1.9943   -1.1509    0.0000 C   0  0  0  0  0  0  0  0  0  0  0  0
    1.3307   -2.3053    0.0000 C   0  0  0  0  0  0  0  0  0  0  0  0
    3.3250   -1.1509    0.0000 Cl  0  0  0  0  0  0  0  0  0  0  0  0
    1.9943   -3.4563    0.0000 Cl  0  0  0  0  0  0  0  0  0  0  0  0
    0.0000   -2.3053    0.0000 Cl  0  0  0  0  0  0  0  0  0  0  0  0
  1  2  1  0  0  0  0 
  2  3  1  0  0  0  0 
  2  4  1  0  0  0  0 
  3  5  1  0  0  0  0 
  3  6  1  0  0  0  0 
M  END
> <Name>
Ethane, 1,1,2,2-tetrachloro-

> <Source>
DSSTox2DMolFile

> <Tox>
3.916

> <CAS>
79-34-5

$$$$

  CDK

 14 14  0  0  0  0  0  0  0  0999 V2000
    1.1542   -2.6610    0.0000 C   0  0  0  0  0  0  0  0  0  0  0  0
    2.0044   -3.6770    0.0000 C   0  0  0  0  0  0  0  0  0  0  0  0
    0.2972   -3.6770    0.0000 C   0  0  0  0  0  0  0  0  0  0  0  0
    0.0000   -1.9905    0.0000 C   0  0  0  0  0  0  0  0  0  0  0  0
    2.3016   -1.9905    0.0000 C   0  0  0  0  0  0  0  0  0  0  0  0
    0.0000   -0.6635    0.0000 C   0  0  0  0  0  0  0  0  0  0  0  0
    2.3016   -0.6635    0.0000 C   0  0  0  0  0  0  0  0  0  0  0  0
    3.4558   -2.6610    0.0000 C   0  0  0  0  0  0  0  0  0  0  0  0
    1.1542   -0.0000    0.0000 C   0  0  0  0  0  0  0  0  0  0  0  0
    3.4558   -0.0000    0.0000 C   0  0  0  0  0  0  0  0  0  0  0  0
    4.6100   -1.9905    0.0000 C   0  0  0  0  0  0  0  0  0  0  0  0
    5.7573   -2.6610    0.0000 C   0  0  0  0  0  0  0  0  0  0  0  0
    6.9116   -1.9905    0.0000 C   0  0  0  0  0  0  0  0  0  0  0  0
    5.7573   -3.9880    0.0000 O   0  0  0  0  0  0  0  0  0  0  0  0
  1  2  1  0  0  0  0 
  1  3  1  0  0  0  0 
  1  4  1  0  0  0  0 
  1  5  1  0  0  0  0 
  4  6  1  0  0  0  0 
  7  5  2  0  0  0  0 
  5  8  1  0  0  0  0 
  6  9  1  0  0  0  0 
  9  7  1  0  0  0  0 
  7 10  1  0  0  0  0 
  8 11  2  0  0  0  0 
 11 12  1  0  0  0  0 
 12 13  1  0  0  0  0 
 12 14  2  0  0  0  0 
M  END
> <Name>
3-Buten-2-one, 4-(2,6,6-trimethyl-1-cyclohexen-1-yl)-, (3E)-

> <Source>
DSSTox2DMolFile

> <Tox>
4.577

> <CAS>
79-77-6

$$$$

  CDK

 21 22  0  0  0  0  0  0  0  0999 V2000
    2.3028   -5.3224    0.0000 C   0  0  0  0  0  0  0  0  0  0  0  0
    2.3028   -6.6492    0.0000 C   0  0  0  0  0  0  0  0  0  0  0  0
    0.9760   -5.3224    0.0000 C   0  0  0  0  0  0  0  0  0  0  0  0
    2.3028   -3.9880    0.0000 C   0  0  0  0  0  0  0  0  0  0  0  0
    3.6372   -5.3224    0.0000 C   0  0  0  0  0  0  0  0  0  0  0  0
    1.1514   -3.3246    0.0000 C   0  0  0  0  0  0  0  0  0  0  0  0
    3.4542   -3.3246    0.0000 C   0  0  0  0  0  0  0  0  0  0  0  0
    4.3006   -4.1710    0.0000 C   0  0  0  0  0  0  0  0  0  0  0  0
    4.3006   -6.4738    0.0000 C   0  0  0  0  0  0  0  0  0  0  0  0
    1.1514   -1.9978    0.0000 C   0  0  0  0  0  0  0  0  0  0  0  0
    3.4542   -1.9978    0.0000 C   0  0  0  0  0  0  0  0  0  0  0  0
    5.6274   -4.1710    0.0000 C   0  0  0  0  0  0  0  0  0  0  0  0
    5.6274   -6.4738    0.0000 C   0  0  0  0  0  0  0  0  0  0  0  0
    0.0000   -1.3268    0.0000 Br  0  0  0  0  0  0  0  0  0  0  0  0
    2.3028   -1.3268    0.0000 C   0  0  0  0  0  0  0  0  0  0  0  0
    4.6057   -1.3268    0.0000 Br  0  0  0  0  0  0  0  0  0  0  0  0
    6.2985   -3.0196    0.0000 Br  0  0  0  0  0  0  0  0  0  0  0  0
    6.2985   -5.3224    0.0000 C   0  0  0  0  0  0  0  0  0  0  0  0
    6.2985   -7.6253    0.0000 Br  0  0  0  0  0  0  0  0  0  0  0  0
    2.3028   -0.0000    0.0000 O   0  0  0  0  0  0  0  0  0  0  0  0
    7.6253   -5.3224    0.0000 O   0  0  0  0  0  0  0  0  0  0  0  0
  1  2  1  0  0  0  0 
  1  3  1  0  0  0  0 
  1  4  1  0  0  0  0 
  1  5  1  0  0  0  0 
  4  6  2  0  0  0  0 
  4  7  1  0  0  0  0 
  5  8  2  0  0  0  0 
  5  9  1  0  0  0  0 
  6 10  1  0  0  0  0 
 11  7  2  0  0  0  0 
  8 12  1  0  0  0  0 
 13  9  2  0  0  0  0 
 10 14  1  0  0  0  0 
 10 15  2  0  0  0  0 
 15 11  1  0  0  0  0 
 11 16  1  0  0  0  0 
 12 17  1  0  0  0  0 
 12 18  2  0  0  0  0 
 18 13  1  0  0  0  0 
 13 19  1  0  0  0  0 
 15 20  1  0  0  0  0 
 18 21  1  0  0  0  0 
M  END
> <Name>
Phenol, 4,4'-isopropylidenebis(2,6-dibromo- (8CI)

> <Source>
DSSTox2DMolFile

> <Tox>
5.835

> <CAS>
79-94-7

$$$$

  CDK

 21 22  0  0  0  0  0  0  0  0999 V2000
    0.0000   -1.3268    0.0000 Cl  0  0  0  0  0  0  0  0  0  0  0  0
    1.1514   -1.9978    0.0000 C   0  0  0  0  0  0  0  0  0  0  0  0
    2.3028   -1.3268    0.0000 C   0  0  0  0  0  0  0  0  0  0  0  0
    1.1514   -3.3246    0.0000 C   0  0  0  0  0  0  0  0  0  0  0  0
    2.3028   -0.0000    0.0000 O   0  0  0  0  0  0  0  0  0  0  0  0
    3.4542   -1.9978    0.0000 C   0  0  0  0  0  0  0  0  0  0  0  0
    2.3028   -3.9880    0.0000 C   0  0  0  0  0  0  0  0  0  0  0  0
    4.6057   -1.3268    0.0000 Cl  0  0  0  0  0  0  0  0  0  0  0  0
    3.4542   -3.3246    0.0000 C   0  0  0  0  0  0  0  0  0  0  0  0
    2.3028   -5.3224    0.0000 C   0  0  0  0  0  0  0  0  0  0  0  0
    3.6372   -5.3224    0.0000 C   0  0  0  0  0  0  0  0  0  0  0  0
    2.3028   -6.6492    0.0000 C   0  0  0  0  0  0  0  0  0  0  0  0
    0.9760   -5.3224    0.0000 C   0  0  0  0  0  0  0  0  0  0  0  0
    4.3006   -4.1710    0.0000 C   0  0  0  0  0  0  0  0  0  0  0  0
    4.3006   -6.4738    0.0000 C   0  0  0  0  0  0  0  0  0  0  0  0
    5.6274   -4.1710    0.0000 C   0  0  0  0  0  0  0  0  0  0  0  0
    5.6274   -6.4738    0.0000 C   0  0  0  0  0  0  0  0  0  0  0  0
    6.2985   -3.0196    0.0000 Cl  0  0  0  0  0  0  0  0  0  0  0  0
    6.2985   -5.3224    0.0000 C   0  0  0  0  0  0  0  0  0  0  0  0
    6.2985   -7.6253    0.0000 Cl  0  0  0  0  0  0  0  0  0  0  0  0
    7.6253   -5.3224    0.0000 O   0  0  0  0  0  0  0  0  0  0  0  0
  1  2  1  0  0  0  0 
  2  3  2  0  0  0  0 
  2  4  1  0  0  0  0 
  3  5  1  0  0  0  0 
  3  6  1  0  0  0  0 
  4  7  2  0  0  0  0 
  6  8  1  0  0  0  0 
  6  9  2  0  0  0  0 
  9  7  1  0  0  0  0 
  7 10  1  0  0  0  0 
 10 11  1  0  0  0  0 
 10 12  1  0  0  0  0 
 10 13  1  0  0  0  0 
 11 14  2  0  0  0  0 
 11 15  1  0  0  0  0 
 14 16  1  0  0  0  0 
 15 17  2  0  0  0  0 
 16 18  1  0  0  0  0 
 16 19  2  0  0  0  0 
 19 17  1  0  0  0  0 
 17 20  1  0  0  0  0 
 19 21  1  0  0  0  0 
M  END
> <Name>
Phenol, 4,4'-(1-methylethylidene)bis(2,6-dichloro-

> <Source>
DSSTox2DMolFile

> <Tox>
5.440

> <CAS>
79-95-8

$$$$

  CDK

 17 18  0  0  0  0  0  0  0  0999 V2000
    2.8233   -0.0000    0.0000 C   0  0  0  0  0  0  0  0  0  0  0  0
    3.7620   -0.9386    0.0000 C   0  0  0  0  0  0  0  0  0  0  0  0
    4.7006   -1.8773    0.0000 C   0  0  0  0  0  0  0  0  0  0  0  0
    2.8233   -1.8773    0.0000 C   0  0  0  0  0  0  0  0  0  0  0  0
    4.7006   -0.0000    0.0000 C   0  0  0  0  0  0  0  0  0  0  0  0
    5.9744   -1.5867    0.0000 C   0  0  0  0  0  0  0  0  0  0  0  0
    4.3058   -3.1735    0.0000 C   0  0  0  0  0  0  0  0  0  0  0  0
    3.1660   -3.1660    0.0000 C   0  0  0  0  0  0  0  0  0  0  0  0
    1.5346   -1.5346    0.0000 C   0  0  0  0  0  0  0  0  0  0  0  0
    6.8907   -2.5477    0.0000 C   0  0  0  0  0  0  0  0  0  0  0  0
    5.2295   -4.1419    0.0000 C   0  0  0  0  0  0  0  0  0  0  0  0
    2.2274   -4.1046    0.0000 C   0  0  0  0  0  0  0  0  0  0  0  0
    0.5960   -2.4807    0.0000 C   0  0  0  0  0  0  0  0  0  0  0  0
    6.5108   -3.8364    0.0000 C   0  0  0  0  0  0  0  0  0  0  0  0
    0.9386   -3.7620    0.0000 C   0  0  0  0  0  0  0  0  0  0  0  0
    7.4494   -4.7751    0.0000 O   0  0  0  0  0  0  0  0  0  0  0  0
    0.0000   -4.7006    0.0000 O   0  0  0  0  0  0  0  0  0  0  0  0
  1  2  1  0  0  0  0 
  2  3  1  0  0  0  0 
  2  4  1  0  0  0  0 
  2  5  1  0  0  0  0 
  3  6  2  0  0  0  0 
  3  7  1  0  0  0  0 
  4  8  2  0  0  0  0 
  4  9  1  0  0  0  0 
  6 10  1  0  0  0  0 
 11  7  2  0  0  0  0 
  8 12  1  0  0  0  0 
 13  9  2  0  0  0  0 
 10 14  2  0  0  0  0 
 14 11  1  0  0  0  0 
 12 15  2  0  0  0  0 
 15 13  1  0  0  0  0 
 14 16  1  0  0  0  0 
 15 17  1  0  0  0  0 
M  END
> <Name>
Phenol, 4,4'-(1-methylethylidene)bis-

> <Source>
DSSTox2DMolFile

> <Tox>
4.691

> <CAS>
80-05-7

$$$$

  CDK

 17 18  0  0  0  0  0  0  0  0999 V2000
    0.0173    1.7751    0.1316 C   0  0  0  0  0  0  0  0  0  0  0  0
   -1.2421    0.9126    0.0616 C   0  0  0  0  0  0  0  0  0  0  0  0
    1.2514    0.8862    0.0487 C   0  0  0  0  0  0  0  0  0  0  0  0
    0.0852    2.5841    1.4413 C   0  0  0  0  0  0  0  0  0  0  0  0
    0.0493    2.6790   -0.9705 O   0  0  0  0  0  0  0  0  0  0  0  0
   -1.9170    0.5315    1.2236 C   0  0  0  0  0  0  0  0  0  0  0  0
   -1.7149    0.4735   -1.1777 C   0  0  0  0  0  0  0  0  0  0  0  0
    1.3236   -0.2505    0.8605 C   0  0  0  0  0  0  0  0  0  0  0  0
    2.3240    1.1940   -0.7904 C   0  0  0  0  0  0  0  0  0  0  0  0
   -3.0559   -0.2604    1.1544 C   0  0  0  0  0  0  0  0  0  0  0  0
   -2.8543   -0.3184   -1.2566 C   0  0  0  0  0  0  0  0  0  0  0  0
    2.4427   -1.0713    0.8341 C   0  0  0  0  0  0  0  0  0  0  0  0
    3.4479    0.3748   -0.8238 C   0  0  0  0  0  0  0  0  0  0  0  0
   -3.5213   -0.6794   -0.0891 C   0  0  0  0  0  0  0  0  0  0  0  0
    3.5021   -0.7533   -0.0119 C   0  0  0  0  0  0  0  0  0  0  0  0
   -4.9038   -1.6374   -0.1810 Cl  0  0  0  0  0  0  0  0  0  0  0  0
    4.8635   -1.7462   -0.0511 Cl  0  0  0  0  0  0  0  0  0  0  0  0
  1  2  1  0  0  0  0 
  1  3  1  0  0  0  0 
  1  4  1  0  0  0  0 
  1  5  1  0  0  0  0 
  2  6  1  0  0  0  0 
  2  7  2  0  0  0  0 
  3  8  1  0  0  0  0 
  3  9  2  0  0  0  0 
  6 10  2  0  0  0  0 
 11  7  1  0  0  0  0 
  8 12  2  0  0  0  0 
 13  9  1  0  0  0  0 
 10 14  1  0  0  0  0 
 14 11  2  0  0  0  0 
 12 15  1  0  0  0  0 
 15 13  2  0  0  0  0 
 14 16  1  0  0  0  0 
 15 17  1  0  0  0  0 
M  END
> <Name>
Benzenemethanol, 4-chloro-alpha-(4-chlorophenyl)-alpha-methyl- (9CI)

> <Source>
DougDB3DMolFile

> <Tox>
5.245

> <CAS>
80-06-8

$$$$

  CDK

 12 12  0  0  0  0  0  0  0  0999 V2000
    6.4728   -0.0000    0.0000 C   0  0  0  0  0  0  0  0  0  0  0  0
    5.3220   -0.6652    0.0000 C   0  0  0  0  0  0  0  0  0  0  0  0
    5.3220   -1.9957    0.0000 C   0  0  0  0  0  0  0  0  0  0  0  0
    5.3220   -3.3262    0.0000 C   0  0  0  0  0  0  0  0  0  0  0  0
    6.6525   -1.9957    0.0000 C   0  0  0  0  0  0  0  0  0  0  0  0
    3.9915   -1.9957    0.0000 C   0  0  0  0  0  0  0  0  0  0  0  0
    3.3262   -3.1466    0.0000 C   0  0  0  0  0  0  0  0  0  0  0  0
    3.3262   -0.8449    0.0000 C   0  0  0  0  0  0  0  0  0  0  0  0
    1.9957   -3.1466    0.0000 C   0  0  0  0  0  0  0  0  0  0  0  0
    1.9957   -0.8449    0.0000 C   0  0  0  0  0  0  0  0  0  0  0  0
    1.3305   -1.9957    0.0000 C   0  0  0  0  0  0  0  0  0  0  0  0
    0.0000   -1.9957    0.0000 O   0  0  0  0  0  0  0  0  0  0  0  0
  1  2  1  0  0  0  0 
  2  3  1  0  0  0  0 
  3  4  1  0  0  0  0 
  3  5  1  0  0  0  0 
  3  6  1  0  0  0  0 
  6  7  2  0  0  0  0 
  6  8  1  0  0  0  0 
  7  9  1  0  0  0  0 
 10  8  2  0  0  0  0 
  9 11  2  0  0  0  0 
 11 10  1  0  0  0  0 
 11 12  1  0  0  0  0 
M  END
> <Name>
Phenol, 4-(1,1-dimethylpropyl)-

> <Source>
DSSTox2DMolFile

> <Tox>
4.802

> <CAS>
80-46-6

$$$$

  CDK

 12 14  0  0  0  0  0  0  0  0999 V2000
    0.0000   -1.9950    0.0000 C   0  0  0  0  0  0  0  0  0  0  0  0
    0.0000   -0.6635    0.0000 C   0  0  0  0  0  0  0  0  0  0  0  0
    1.1519   -2.6585    0.0000 C   0  0  0  0  0  0  0  0  0  0  0  0
    1.1519   -0.0000    0.0000 C   0  0  0  0  0  0  0  0  0  0  0  0
    2.3037   -1.9950    0.0000 C   0  0  0  0  0  0  0  0  0  0  0  0
    1.6402   -3.8979    0.0000 C   0  0  0  0  0  0  0  0  0  0  0  0
    2.3037   -0.6635    0.0000 C   0  0  0  0  0  0  0  0  0  0  0  0
    3.4556   -2.6585    0.0000 C   0  0  0  0  0  0  0  0  0  0  0  0
    2.9672   -3.8979    0.0000 C   0  0  0  0  0  0  0  0  0  0  0  0
    3.4556   -0.0000    0.0000 C   0  0  0  0  0  0  0  0  0  0  0  0
    4.6074   -1.9950    0.0000 C   0  0  0  0  0  0  0  0  0  0  0  0
    4.6074   -0.6635    0.0000 C   0  0  0  0  0  0  0  0  0  0  0  0
  1  2  2  0  0  0  0 
  1  3  1  0  0  0  0 
  2  4  1  0  0  0  0 
  5  3  2  0  0  0  0 
  3  6  1  0  0  0  0 
  4  7  2  0  0  0  0 
  7  5  1  0  0  0  0 
  8  5  1  0  0  0  0 
  6  9  1  0  0  0  0 
  7 10  1  0  0  0  0 
 11  8  2  0  0  0  0 
  8  9  1  0  0  0  0 
 10 12  2  0  0  0  0 
 12 11  1  0  0  0  0 
M  END
> <Name>
Acenaphthylene, 1,2-dihydro-

> <Source>
DSSTox2DMolFile

> <Tox>
4.984

> <CAS>
83-32-9

$$$$

  CDK

 10 11  0  0  0  0  0  0  0  0999 V2000
   -0.7424    1.7866    0.0017 N   0  0  0  0  0  0  0  0  0  0  0  0
   -1.9339    1.0348    0.0039 C   0  0  0  0  0  0  0  0  0  0  0  0
    0.3513    0.9027   -0.0014 C   0  0  0  0  0  0  0  0  0  0  0  0
   -1.6122   -0.3098    0.0025 C   0  0  0  0  0  0  0  0  0  0  0  0
   -0.1759   -0.4176    0.0009 C   0  0  0  0  0  0  0  0  0  0  0  0
    1.7337    1.1458   -0.0038 C   0  0  0  0  0  0  0  0  0  0  0  0
   -2.5552   -1.4379   -0.0060 C   0  0  0  0  0  0  0  0  0  0  0  0
    0.7000   -1.5116    0.0045 C   0  0  0  0  0  0  0  0  0  0  0  0
    2.5676    0.0482   -0.0028 C   0  0  0  0  0  0  0  0  0  0  0  0
    2.0570   -1.2660    0.0022 C   0  0  0  0  0  0  0  0  0  0  0  0
  1  2  1  0  0  0  0 
  1  3  1  0  0  0  0 
  2  4  2  0  0  0  0 
  5  3  1  0  0  0  0 
  6  3  2  0  0  0  0 
  4  5  1  0  0  0  0 
  4  7  1  0  0  0  0 
  5  8  2  0  0  0  0 
  9  6  1  0  0  0  0 
  8 10  1  0  0  0  0 
 10  9  2  0  0  0  0 
M  END
> <Name>
1H-Indole, 3-methyl-

> <Source>
DougDB3DMolFile

> <Tox>
4.171

> <CAS>
83-34-1

$$$$

  CDK

 29 33  0  0  0  0  0  0  0  0999 V2000
    8.0602   -4.4011    0.0000 C   0  0  0  0  0  0  0  0  0  0  0  0
    8.0602   -5.7061    0.0000 C   0  0  0  0  0  0  0  0  0  0  0  0
    9.2117   -3.7103    0.0000 C   0  0  0  0  0  0  0  0  0  0  0  0
    6.9088   -3.7103    0.0000 O   0  0  0  0  0  0  0  0  0  0  0  0
    6.9088   -6.3970    0.0000 C   0  0  0  0  0  0  0  0  0  0  0  0
    9.2117   -6.3970    0.0000 C   0  0  0  0  0  0  0  0  0  0  0  0
   10.3632   -4.4011    0.0000 C   0  0  0  0  0  0  0  0  0  0  0  0
    9.5060   -2.4181    0.0000 C   0  0  0  0  0  0  0  0  0  0  0  0
    5.7573   -4.4011    0.0000 C   0  0  0  0  0  0  0  0  0  0  0  0
    6.9088   -7.7020    0.0000 O   0  0  0  0  0  0  0  0  0  0  0  0
    5.7573   -5.7061    0.0000 C   0  0  0  0  0  0  0  0  0  0  0  0
   10.3632   -5.7061    0.0000 C   0  0  0  0  0  0  0  0  0  0  0  0
   11.3355   -3.4800    0.0000 O   0  0  0  0  0  0  0  0  0  0  0  0
   10.8237   -2.2901    0.0000 C   0  0  0  0  0  0  0  0  0  0  0  0
    4.6186   -3.7103    0.0000 C   0  0  0  0  0  0  0  0  0  0  0  0
    4.6186   -6.3970    0.0000 C   0  0  0  0  0  0  0  0  0  0  0  0
   11.5018   -1.1643    0.0000 C   0  0  0  0  0  0  0  0  0  0  0  0
    3.4672   -4.4011    0.0000 O   0  0  0  0  0  0  0  0  0  0  0  0
    4.6186   -7.7020    0.0000 C   0  0  0  0  0  0  0  0  0  0  0  0
    3.4672   -5.7061    0.0000 C   0  0  0  0  0  0  0  0  0  0  0  0
   10.8109   -0.0000    0.0000 C   0  0  0  0  0  0  0  0  0  0  0  0
   12.7940   -1.1515    0.0000 C   0  0  0  0  0  0  0  0  0  0  0  0
    3.4672   -8.3929    0.0000 C   0  0  0  0  0  0  0  0  0  0  0  0
    2.3157   -6.3970    0.0000 C   0  0  0  0  0  0  0  0  0  0  0  0
    3.4672   -9.7107    0.0000 O   0  0  0  0  0  0  0  0  0  0  0  0
    2.3157   -7.7020    0.0000 C   0  0  0  0  0  0  0  0  0  0  0  0
    2.3157  -10.3759    0.0000 C   0  0  0  0  0  0  0  0  0  0  0  0
    1.1515   -8.4057    0.0000 O   0  0  0  0  0  0  0  0  0  0  0  0
    0.0000   -7.7148    0.0000 C   0  0  0  0  0  0  0  0  0  0  0  0
  1  2  2  0  0  0  0 
  1  3  1  0  0  0  0 
  1  4  1  0  0  0  0 
  5  2  1  0  0  0  0 
  2  6  1  0  0  0  0 
  3  7  2  0  0  0  0 
  3  8  1  0  0  0  0 
  4  9  1  0  0  0  0 
  5 10  2  0  0  0  0 
  5 11  1  0  0  0  0 
  6 12  2  0  0  0  0 
 13  7  1  0  0  0  0 
  7 12  1  0  0  0  0 
  8 14  1  0  0  0  0 
 11  9  1  0  0  0  0 
  9 15  1  0  0  0  0 
 11 16  1  0  0  0  0 
 13 14  1  0  0  0  0 
 14 17  1  6  0  0  0 
 18 15  1  0  0  0  0 
 16 19  1  0  0  0  0 
 16 20  2  0  0  0  0 
 17 21  2  0  0  0  0 
 17 22  1  0  0  0  0 
 20 18  1  0  0  0  0 
 19 23  2  0  0  0  0 
 20 24  1  0  0  0  0 
 23 25  1  0  0  0  0 
 23 26  1  0  0  0  0 
 24 26  2  0  0  0  0 
 25 27  1  0  0  0  0 
 26 28  1  0  0  0  0 
 28 29  1  0  0  0  0 
M  END
> <Name>
(1)Benzopyrano(3,4-b)furo(2,3-h)(1)benzopyran-6(6aH)-one, 1,2,12,12a-tetrahydro-8,9-dimethoxy-2-(1-methylethenyl)-, (2R-(2alpha,6aalpha,12aalpha))-

> <Source>
DSSTox2DMolFile

> <Tox>
7.818

> <CAS>
83-79-4

$$$$

  CDK

 24 26  0  0  0  0  0  0  0  0999 V2000
    8.6401   -2.2984    0.0000 C   0  0  0  0  0  0  0  0  0  0  0  0
    9.9702   -2.2984    0.0000 C   0  0  0  0  0  0  0  0  0  0  0  0
    7.9804   -3.4475    0.0000 C   0  0  0  0  0  0  0  0  0  0  0  0
   10.6405   -3.4475    0.0000 C   0  0  0  0  0  0  0  0  0  0  0  0
    8.6401   -4.6074    0.0000 C   0  0  0  0  0  0  0  0  0  0  0  0
    6.6503   -3.4475    0.0000 O   0  0  0  0  0  0  0  0  0  0  0  0
    9.9702   -4.6074    0.0000 C   0  0  0  0  0  0  0  0  0  0  0  0
    5.9800   -4.6074    0.0000 C   0  0  0  0  0  0  0  0  0  0  0  0
    6.6503   -5.7565    0.0000 O   0  0  0  0  0  0  0  0  0  0  0  0
    4.6606   -4.6074    0.0000 C   0  0  0  0  0  0  0  0  0  0  0  0
    3.9902   -5.7565    0.0000 C   0  0  0  0  0  0  0  0  0  0  0  0
    3.9902   -3.4475    0.0000 C   0  0  0  0  0  0  0  0  0  0  0  0
    2.6601   -5.7565    0.0000 C   0  0  0  0  0  0  0  0  0  0  0  0
    2.6601   -3.4475    0.0000 C   0  0  0  0  0  0  0  0  0  0  0  0
    4.6606   -2.2984    0.0000 C   0  0  0  0  0  0  0  0  0  0  0  0
    2.0004   -4.6074    0.0000 C   0  0  0  0  0  0  0  0  0  0  0  0
    5.9800   -2.2984    0.0000 O   0  0  0  0  0  0  0  0  0  0  0  0
    3.9902   -1.1492    0.0000 O   0  0  0  0  0  0  0  0  0  0  0  0
    2.6601   -1.1492    0.0000 C   0  0  0  0  0  0  0  0  0  0  0  0
    2.0004   -2.2984    0.0000 C   0  0  0  0  0  0  0  0  0  0  0  0
    2.0004   -0.0000    0.0000 C   0  0  0  0  0  0  0  0  0  0  0  0
    0.6704   -2.2984    0.0000 C   0  0  0  0  0  0  0  0  0  0  0  0
    0.6704   -0.0000    0.0000 C   0  0  0  0  0  0  0  0  0  0  0  0
    0.0000   -1.1492    0.0000 C   0  0  0  0  0  0  0  0  0  0  0  0
  1  2  2  0  0  0  0 
  1  3  1  0  0  0  0 
  2  4  1  0  0  0  0 
  5  3  2  0  0  0  0 
  3  6  1  0  0  0  0 
  4  7  2  0  0  0  0 
  7  5  1  0  0  0  0 
  6  8  1  0  0  0  0 
  8  9  2  0  0  0  0 
  8 10  1  0  0  0  0 
 10 11  2  0  0  0  0 
 10 12  1  0  0  0  0 
 11 13  1  0  0  0  0 
 14 12  2  0  0  0  0 
 12 15  1  0  0  0  0 
 13 16  2  0  0  0  0 
 16 14  1  0  0  0  0 
 15 17  2  0  0  0  0 
 15 18  1  0  0  0  0 
 18 19  1  0  0  0  0 
 19 20  2  0  0  0  0 
 19 21  1  0  0  0  0 
 20 22  1  0  0  0  0 
 23 21  2  0  0  0  0 
 22 24  2  0  0  0  0 
 24 23  1  0  0  0  0 
M  END
> <Name>
1,2-Benzenedicarboxylic acid, diphenyl ester

> <Source>
DSSTox2DMolFile

> <Tox>
6.600

> <CAS>
84-62-8

$$$$

  CDK

 16 16  0  0  0  0  0  0  0  0999 V2000
    6.6518   -5.7598    0.0000 C   0  0  0  0  0  0  0  0  0  0  0  0
    5.9880   -4.6120    0.0000 C   0  0  0  0  0  0  0  0  0  0  0  0
    4.6604   -4.6120    0.0000 O   0  0  0  0  0  0  0  0  0  0  0  0
    3.9897   -5.7598    0.0000 C   0  0  0  0  0  0  0  0  0  0  0  0
    4.6604   -6.9146    0.0000 O   0  0  0  0  0  0  0  0  0  0  0  0
    2.6621   -5.7598    0.0000 C   0  0  0  0  0  0  0  0  0  0  0  0
    1.9983   -6.9146    0.0000 C   0  0  0  0  0  0  0  0  0  0  0  0
    1.9983   -4.6120    0.0000 C   0  0  0  0  0  0  0  0  0  0  0  0
    0.6638   -6.9146    0.0000 C   0  0  0  0  0  0  0  0  0  0  0  0
    0.6638   -4.6120    0.0000 C   0  0  0  0  0  0  0  0  0  0  0  0
    2.6621   -3.4573    0.0000 C   0  0  0  0  0  0  0  0  0  0  0  0
    0.0000   -5.7598    0.0000 C   0  0  0  0  0  0  0  0  0  0  0  0
    3.9897   -3.4573    0.0000 O   0  0  0  0  0  0  0  0  0  0  0  0
    1.9983   -2.3025    0.0000 O   0  0  0  0  0  0  0  0  0  0  0  0
    2.6621   -1.1547    0.0000 C   0  0  0  0  0  0  0  0  0  0  0  0
    1.9983   -0.0000    0.0000 C   0  0  0  0  0  0  0  0  0  0  0  0
  1  2  1  0  0  0  0 
  2  3  1  0  0  0  0 
  3  4  1  0  0  0  0 
  4  5  2  0  0  0  0 
  4  6  1  0  0  0  0 
  6  7  2  0  0  0  0 
  6  8  1  0  0  0  0 
  7  9  1  0  0  0  0 
 10  8  2  0  0  0  0 
  8 11  1  0  0  0  0 
  9 12  2  0  0  0  0 
 12 10  1  0  0  0  0 
 11 13  2  0  0  0  0 
 11 14  1  0  0  0  0 
 14 15  1  0  0  0  0 
 15 16  1  0  0  0  0 
M  END
> <Name>
1,2-Benzenedicarboxylic acid, diethyl ester

> <Source>
DSSTox2DMolFile

> <Tox>
4.116

> <CAS>
84-66-2

$$$$

  CDK

 20 20  0  0  0  0  0  0  0  0999 V2000
    5.3176   -5.7600    0.0000 C   0  0  0  0  0  0  0  0  0  0  0  0
    5.9904   -4.6080    0.0000 C   0  0  0  0  0  0  0  0  0  0  0  0
    5.9904   -6.9120    0.0000 C   0  0  0  0  0  0  0  0  0  0  0  0
    3.9905   -5.7600    0.0000 C   0  0  0  0  0  0  0  0  0  0  0  0
    5.3176   -3.4560    0.0000 C   0  0  0  0  0  0  0  0  0  0  0  0
    7.3175   -4.6080    0.0000 C   0  0  0  0  0  0  0  0  0  0  0  0
    7.3175   -6.9120    0.0000 C   0  0  0  0  0  0  0  0  0  0  0  0
    3.3270   -6.9120    0.0000 O   0  0  0  0  0  0  0  0  0  0  0  0
    3.3270   -4.6080    0.0000 O   0  0  0  0  0  0  0  0  0  0  0  0
    3.9905   -3.4560    0.0000 O   0  0  0  0  0  0  0  0  0  0  0  0
    5.9904   -2.3040    0.0000 O   0  0  0  0  0  0  0  0  0  0  0  0
    7.9810   -5.7600    0.0000 C   0  0  0  0  0  0  0  0  0  0  0  0
    1.9999   -6.9120    0.0000 C   0  0  0  0  0  0  0  0  0  0  0  0
    3.3270   -2.3040    0.0000 C   0  0  0  0  0  0  0  0  0  0  0  0
    1.3271   -8.0640    0.0000 C   0  0  0  0  0  0  0  0  0  0  0  0
    3.9905   -1.1520    0.0000 C   0  0  0  0  0  0  0  0  0  0  0  0
    1.9999   -9.2159    0.0000 C   0  0  0  0  0  0  0  0  0  0  0  0
    0.0000   -8.0640    0.0000 C   0  0  0  0  0  0  0  0  0  0  0  0
    3.3270   -0.0000    0.0000 C   0  0  0  0  0  0  0  0  0  0  0  0
    5.3176   -1.1520    0.0000 C   0  0  0  0  0  0  0  0  0  0  0  0
  1  2  2  0  0  0  0 
  1  3  1  0  0  0  0 
  1  4  1  0  0  0  0 
  2  5  1  0  0  0  0 
  2  6  1  0  0  0  0 
  7  3  2  0  0  0  0 
  4  8  1  0  0  0  0 
  4  9  2  0  0  0  0 
  5 10  1  0  0  0  0 
  5 11  2  0  0  0  0 
  6 12  2  0  0  0  0 
 12  7  1  0  0  0  0 
  8 13  1  0  0  0  0 
 10 14  1  0  0  0  0 
 13 15  1  0  0  0  0 
 14 16  1  0  0  0  0 
 15 17  1  0  0  0  0 
 15 18  1  0  0  0  0 
 16 19  1  0  0  0  0 
 16 20  1  0  0  0  0 
M  END
> <Name>
1,2-Benzenedicarboxylic acid, bis(2-methylpropyl) ester

> <Source>
DSSTox2DMolFile

> <Tox>
5.490

> <CAS>
84-69-5

$$$$

  CDK

 20 20  0  0  0  0  0  0  0  0999 V2000
    8.6524   -6.9219    0.0000 C   0  0  0  0  0  0  0  0  0  0  0  0
    7.9862   -8.0727    0.0000 C   0  0  0  0  0  0  0  0  0  0  0  0
    7.9862   -5.7712    0.0000 C   0  0  0  0  0  0  0  0  0  0  0  0
    6.6537   -8.0727    0.0000 C   0  0  0  0  0  0  0  0  0  0  0  0
    6.6537   -5.7712    0.0000 C   0  0  0  0  0  0  0  0  0  0  0  0
    5.9875   -6.9219    0.0000 C   0  0  0  0  0  0  0  0  0  0  0  0
    5.9875   -4.6117    0.0000 C   0  0  0  0  0  0  0  0  0  0  0  0
    4.6550   -6.9219    0.0000 C   0  0  0  0  0  0  0  0  0  0  0  0
    6.6537   -3.4610    0.0000 O   0  0  0  0  0  0  0  0  0  0  0  0
    4.6550   -4.6117    0.0000 O   0  0  0  0  0  0  0  0  0  0  0  0
    3.9974   -5.7712    0.0000 O   0  0  0  0  0  0  0  0  0  0  0  0
    3.9974   -8.0727    0.0000 O   0  0  0  0  0  0  0  0  0  0  0  0
    3.9974   -3.4610    0.0000 C   0  0  0  0  0  0  0  0  0  0  0  0
    2.6649   -8.0727    0.0000 C   0  0  0  0  0  0  0  0  0  0  0  0
    4.6550   -2.3102    0.0000 C   0  0  0  0  0  0  0  0  0  0  0  0
    1.9987   -6.9219    0.0000 C   0  0  0  0  0  0  0  0  0  0  0  0
    3.9974   -1.1594    0.0000 C   0  0  0  0  0  0  0  0  0  0  0  0
    0.6662   -6.9219    0.0000 C   0  0  0  0  0  0  0  0  0  0  0  0
    4.6550   -0.0000    0.0000 C   0  0  0  0  0  0  0  0  0  0  0  0
    0.0000   -5.7712    0.0000 C   0  0  0  0  0  0  0  0  0  0  0  0
  1  2  2  0  0  0  0 
  1  3  1  0  0  0  0 
  2  4  1  0  0  0  0 
  3  5  2  0  0  0  0 
  4  6  2  0  0  0  0 
  6  5  1  0  0  0  0 
  5  7  1  0  0  0  0 
  6  8  1  0  0  0  0 
  7  9  2  0  0  0  0 
  7 10  1  0  0  0  0 
  8 11  2  0  0  0  0 
  8 12  1  0  0  0  0 
 10 13  1  0  0  0  0 
 12 14  1  0  0  0  0 
 13 15  1  0  0  0  0 
 14 16  1  0  0  0  0 
 15 17  1  0  0  0  0 
 16 18  1  0  0  0  0 
 17 19  1  0  0  0  0 
 18 20  1  0  0  0  0 
M  END
> <Name>
1,2-Benzenedicarboxylic acid, dibutyl ester

> <Source>
DSSTox2DMolFile

> <Tox>
5.367

> <CAS>
84-74-2

$$$$

  CDK

 23 24  0  0  0  0  0  0  0  0999 V2000
    5.3142   -2.2980    0.0000 C   0  0  0  0  0  0  0  0  0  0  0  0
    3.9856   -2.2980    0.0000 C   0  0  0  0  0  0  0  0  0  0  0  0
    5.9844   -1.1490    0.0000 C   0  0  0  0  0  0  0  0  0  0  0  0
    5.9844   -3.4470    0.0000 C   0  0  0  0  0  0  0  0  0  0  0  0
    3.3273   -1.1490    0.0000 C   0  0  0  0  0  0  0  0  0  0  0  0
    3.3273   -3.4470    0.0000 C   0  0  0  0  0  0  0  0  0  0  0  0
    5.3142   -0.0000    0.0000 C   0  0  0  0  0  0  0  0  0  0  0  0
    7.3130   -3.4470    0.0000 O   0  0  0  0  0  0  0  0  0  0  0  0
    5.3142   -4.6080    0.0000 O   0  0  0  0  0  0  0  0  0  0  0  0
    3.9856   -0.0000    0.0000 C   0  0  0  0  0  0  0  0  0  0  0  0
    3.9856   -4.6080    0.0000 O   0  0  0  0  0  0  0  0  0  0  0  0
    1.9988   -3.4470    0.0000 O   0  0  0  0  0  0  0  0  0  0  0  0
    7.9832   -4.6080    0.0000 C   0  0  0  0  0  0  0  0  0  0  0  0
    3.3273   -5.7570    0.0000 C   0  0  0  0  0  0  0  0  0  0  0  0
    9.3118   -4.6080    0.0000 C   0  0  0  0  0  0  0  0  0  0  0  0
    1.9988   -5.7570    0.0000 C   0  0  0  0  0  0  0  0  0  0  0  0
    9.9701   -3.4470    0.0000 C   0  0  0  0  0  0  0  0  0  0  0  0
    9.9701   -5.7570    0.0000 C   0  0  0  0  0  0  0  0  0  0  0  0
    1.3285   -6.9060    0.0000 C   0  0  0  0  0  0  0  0  0  0  0  0
   11.2986   -3.4470    0.0000 C   0  0  0  0  0  0  0  0  0  0  0  0
   11.2986   -5.7570    0.0000 C   0  0  0  0  0  0  0  0  0  0  0  0
    0.0000   -6.9060    0.0000 C   0  0  0  0  0  0  0  0  0  0  0  0
   11.9689   -4.6080    0.0000 C   0  0  0  0  0  0  0  0  0  0  0  0
  1  2  2  0  0  0  0 
  1  3  1  0  0  0  0 
  1  4  1  0  0  0  0 
  2  5  1  0  0  0  0 
  2  6  1  0  0  0  0 
  7  3  2  0  0  0  0 
  4  8  1  0  0  0  0 
  4  9  2  0  0  0  0 
  5 10  2  0  0  0  0 
  6 11  1  0  0  0  0 
  6 12  2  0  0  0  0 
 10  7  1  0  0  0  0 
  8 13  1  0  0  0  0 
 11 14  1  0  0  0  0 
 13 15  1  0  0  0  0 
 14 16  1  0  0  0  0 
 15 17  2  0  0  0  0 
 15 18  1  0  0  0  0 
 16 19  1  0  0  0  0 
 17 20  1  0  0  0  0 
 21 18  2  0  0  0  0 
 19 22  1  0  0  0  0 
 20 23  2  0  0  0  0 
 23 21  1  0  0  0  0 
M  END
> <Name>
1,2-Benzenedicarboxylic acid, butyl phenylmethyl ester

> <Source>
DSSTox2DMolFile

> <Tox>
5.224

> <CAS>
85-68-7

$$$$

  CDK

 13 14  0  0  0  0  0  0  0  0999 V2000
    1.1516   -3.9902    0.0000 O   0  0  0  0  0  0  0  0  0  0  0  0
    1.1516   -2.6601    0.0000 N   0  0  0  0  0  0  0  0  0  0  0  0
    2.3031   -1.9922    0.0000 C   0  0  0  0  0  0  0  0  0  0  0  0
    0.0000   -1.9922    0.0000 O   0  0  0  0  0  0  0  0  0  0  0  0
    3.4547   -2.6601    0.0000 C   0  0  0  0  0  0  0  0  0  0  0  0
    2.3031   -0.6622    0.0000 C   0  0  0  0  0  0  0  0  0  0  0  0
    4.6063   -1.9922    0.0000 C   0  0  0  0  0  0  0  0  0  0  0  0
    3.4547   -3.9902    0.0000 C   0  0  0  0  0  0  0  0  0  0  0  0
    3.4547   -0.0000    0.0000 C   0  0  0  0  0  0  0  0  0  0  0  0
    4.6063   -0.6622    0.0000 C   0  0  0  0  0  0  0  0  0  0  0  0
    5.7578   -2.6601    0.0000 C   0  0  0  0  0  0  0  0  0  0  0  0
    4.6063   -4.6523    0.0000 C   0  0  0  0  0  0  0  0  0  0  0  0
    5.7578   -3.9902    0.0000 C   0  0  0  0  0  0  0  0  0  0  0  0
  1  2  2  0  0  0  0 
  2  3  1  0  0  0  0 
  2  4  1  0  0  0  0 
  3  5  2  0  0  0  0 
  3  6  1  0  0  0  0 
  5  7  1  0  0  0  0 
  5  8  1  0  0  0  0 
  9  6  2  0  0  0  0 
  7 10  2  0  0  0  0 
  7 11  1  0  0  0  0 
 12  8  2  0  0  0  0 
 10  9  1  0  0  0  0 
 11 13  2  0  0  0  0 
 13 12  1  0  0  0  0 
M  CHG  1   2   1
M  CHG  1   4  -1
M  END
> <Name>
Naphthalene, 1-nitro-

> <Source>
DSSTox2DMolFile

> <Tox>
4.532

> <CAS>
86-57-7

$$$$

  CDK

 13 15  0  0  0  0  0  0  0  0999 V2000
    3.7329   -2.1413    0.0000 C   0  0  0  0  0  0  0  0  0  0  0  0
    2.4289   -1.8664    0.0000 C   0  0  0  0  0  0  0  0  0  0  0  0
    4.3976   -0.9907    0.0000 C   0  0  0  0  0  0  0  0  0  0  0  0
    4.3976   -3.2918    0.0000 C   0  0  0  0  0  0  0  0  0  0  0  0
    2.2883   -0.5433    0.0000 C   0  0  0  0  0  0  0  0  0  0  0  0
    1.3551   -2.6462    0.0000 C   0  0  0  0  0  0  0  0  0  0  0  0
    3.5091   -0.0000    0.0000 N   0  0  0  0  0  0  0  0  0  0  0  0
    5.7271   -0.9907    0.0000 C   0  0  0  0  0  0  0  0  0  0  0  0
    5.7271   -3.2918    0.0000 C   0  0  0  0  0  0  0  0  0  0  0  0
    1.0738   -0.0000    0.0000 C   0  0  0  0  0  0  0  0  0  0  0  0
    0.1406   -2.1029    0.0000 C   0  0  0  0  0  0  0  0  0  0  0  0
    6.3919   -2.1413    0.0000 C   0  0  0  0  0  0  0  0  0  0  0  0
    0.0000   -0.7798    0.0000 C   0  0  0  0  0  0  0  0  0  0  0  0
  1  2  1  0  0  0  0 
  1  3  1  0  0  0  0 
  1  4  2  0  0  0  0 
  2  5  2  0  0  0  0 
  2  6  1  0  0  0  0 
  7  3  1  0  0  0  0 
  3  8  2  0  0  0  0 
  9  4  1  0  0  0  0 
  5 10  1  0  0  0  0 
  5  7  1  0  0  0  0 
 11  6  2  0  0  0  0 
  8 12  1  0  0  0  0 
 12  9  2  0  0  0  0 
 10 13  2  0  0  0  0 
 13 11  1  0  0  0  0 
M  END
> <Name>
9H-Carbazole

> <Source>
DSSTox2DMolFile

> <Tox>
5.255

> <CAS>
86-74-8

$$$$

  CDK

 10 10  0  0  0  0  0  0  0  0999 V2000
    0.8408    0.9782   -0.0559 C   0  0  0  0  0  0  0  0  0  0  0  0
   -0.7105    1.0744   -0.0525 C   0  0  0  0  0  0  0  0  0  0  0  0
    1.2838   -0.3541    0.6088 C   0  0  0  0  0  0  0  0  0  0  0  0
    1.2357    1.0854   -1.4088 O   0  0  0  0  0  0  0  0  0  0  0  0
   -1.3307   -0.2455   -0.6108 C   0  0  0  0  0  0  0  0  0  0  0  0
   -1.0876    1.3623    1.2771 O   0  0  0  0  0  0  0  0  0  0  0  0
    0.5861   -1.5573   -0.0632 C   0  0  0  0  0  0  0  0  0  0  0  0
    2.6894   -0.4402    0.4901 O   0  0  0  0  0  0  0  0  0  0  0  0
   -0.8175   -1.4255   -0.0245 O   0  0  0  0  0  0  0  0  0  0  0  0
   -2.6562   -0.4379   -0.2249 O   0  0  0  0  0  0  0  0  0  0  0  0
  1  2  1  0  0  0  0 
  1  3  1  0  0  0  0 
  1  4  1  0  0  0  0 
  2  5  1  0  0  0  0 
  2  6  1  0  0  0  0 
  3  7  1  0  0  0  0 
  3  8  1  0  0  0  0 
  5  9  1  0  0  0  0 
  5 10  1  0  0  0  0 
  7  9  1  0  0  0  0 
M  END
> <Name>
L-Arabinopyranose

> <Source>
DougDB3DMolFile

> <Tox>
0.600

> <CAS>
87-72-9

$$$$

  CDK

 12 12  0  0  0  0  0  0  0  0999 V2000
    0.0000   -2.3022    0.0000 O   0  0  0  0  0  0  0  0  0  0  0  0
    1.3292   -2.3022    0.0000 C   0  0  0  0  0  0  0  0  0  0  0  0
    2.0045   -1.1485    0.0000 C   0  0  0  0  0  0  0  0  0  0  0  0
    2.0045   -3.4560    0.0000 C   0  0  0  0  0  0  0  0  0  0  0  0
    3.3337   -1.1485    0.0000 C   0  0  0  0  0  0  0  0  0  0  0  0
    1.3292   -0.0000    0.0000 Cl  0  0  0  0  0  0  0  0  0  0  0  0
    3.3337   -3.4560    0.0000 C   0  0  0  0  0  0  0  0  0  0  0  0
    1.3292   -4.6098    0.0000 Cl  0  0  0  0  0  0  0  0  0  0  0  0
    3.9877   -2.3022    0.0000 C   0  0  0  0  0  0  0  0  0  0  0  0
    3.9877   -0.0000    0.0000 Cl  0  0  0  0  0  0  0  0  0  0  0  0
    3.9877   -4.6098    0.0000 Cl  0  0  0  0  0  0  0  0  0  0  0  0
    5.3169   -2.3022    0.0000 Cl  0  0  0  0  0  0  0  0  0  0  0  0
  1  2  1  0  0  0  0 
  2  3  2  0  0  0  0 
  2  4  1  0  0  0  0 
  3  5  1  0  0  0  0 
  3  6  1  0  0  0  0 
  7  4  2  0  0  0  0 
  4  8  1  0  0  0  0 
  5  9  2  0  0  0  0 
  5 10  1  0  0  0  0 
  9  7  1  0  0  0  0 
  7 11  1  0  0  0  0 
  9 12  1  0  0  0  0 
M  END
> <Name>
Phenol, pentachloro-

> <Source>
DSSTox2DMolFile

> <Tox>
6.027

> <CAS>
87-86-5

$$$$

  CDK

 14 13  0  0  0  0  0  0  0  0999 V2000
    1.8982   -0.4927   -0.3888 C   0  0  0  0  0  0  0  0  0  0  0  0
    0.3953   -0.6388   -0.6731 C   0  0  0  0  0  0  0  0  0  0  0  0
    2.7307   -1.3764   -0.4023 O   0  0  0  0  0  0  0  0  0  0  0  0
    2.2577    0.7888   -0.1128 O   0  0  0  0  0  0  0  0  0  0  0  0
   -0.3957   -0.6392    0.6729 C   0  0  0  0  0  0  0  0  0  0  0  0
    0.1197   -1.7576   -1.4687 O   0  0  0  0  0  0  0  0  0  0  0  0
    3.6297    1.0600    0.1925 C   0  0  0  0  0  0  0  0  0  0  0  0
   -1.8986   -0.4928    0.3889 C   0  0  0  0  0  0  0  0  0  0  0  0
   -0.1202   -1.7585    1.4678 O   0  0  0  0  0  0  0  0  0  0  0  0
    3.7182    2.5467    0.4755 C   0  0  0  0  0  0  0  0  0  0  0  0
   -2.7311   -1.3765    0.4022 O   0  0  0  0  0  0  0  0  0  0  0  0
   -2.2578    0.7889    0.1136 O   0  0  0  0  0  0  0  0  0  0  0  0
   -3.6296    1.0608   -0.1917 C   0  0  0  0  0  0  0  0  0  0  0  0
   -3.7169    2.5473   -0.4760 C   0  0  0  0  0  0  0  0  0  0  0  0
  1  2  1  0  0  0  0 
  1  3  2  0  0  0  0 
  1  4  1  0  0  0  0 
  2  5  1  0  0  0  0 
  2  6  1  0  0  0  0 
  4  7  1  0  0  0  0 
  5  8  1  0  0  0  0 
  5  9  1  0  0  0  0 
  7 10  1  0  0  0  0 
  8 11  2  0  0  0  0 
  8 12  1  0  0  0  0 
 12 13  1  0  0  0  0 
 13 14  1  0  0  0  0 
M  END
> <Name>
Tartaric acid, diethyl ester (8CI)

> <Source>
DougDB3DMolFile

> <Tox>
2.501

> <CAS>
87-91-2

$$$$

  CDK

 10 10  0  0  0  0  0  0  0  0999 V2000
    5.3182   -2.3028    0.0000 O   0  0  0  0  0  0  0  0  0  0  0  0
    3.9887   -2.3028    0.0000 C   0  0  0  0  0  0  0  0  0  0  0  0
    3.3239   -3.4568    0.0000 C   0  0  0  0  0  0  0  0  0  0  0  0
    3.3239   -1.1487    0.0000 C   0  0  0  0  0  0  0  0  0  0  0  0
    1.9943   -3.4568    0.0000 C   0  0  0  0  0  0  0  0  0  0  0  0
    3.9887   -4.6056    0.0000 Cl  0  0  0  0  0  0  0  0  0  0  0  0
    1.9943   -1.1487    0.0000 C   0  0  0  0  0  0  0  0  0  0  0  0
    3.9887   -0.0000    0.0000 Cl  0  0  0  0  0  0  0  0  0  0  0  0
    1.3296   -2.3028    0.0000 C   0  0  0  0  0  0  0  0  0  0  0  0
    0.0000   -2.3028    0.0000 Cl  0  0  0  0  0  0  0  0  0  0  0  0
  1  2  1  0  0  0  0 
  2  3  2  0  0  0  0 
  2  4  1  0  0  0  0 
  3  5  1  0  0  0  0 
  3  6  1  0  0  0  0 
  7  4  2  0  0  0  0 
  4  8  1  0  0  0  0 
  5  9  2  0  0  0  0 
  9  7  1  0  0  0  0 
  9 10  1  0  0  0  0 
M  END
> <Name>
Phenol, 2,4,6-trichloro-

> <Source>
DSSTox2DMolFile

> <Tox>
4.637

> <CAS>
88-06-2

$$$$

  CDK

 14 14  0  0  0  0  0  0  0  0999 V2000
    5.3209   -5.7586    0.0000 O   0  0  0  0  0  0  0  0  0  0  0  0
    4.6529   -4.6069    0.0000 C   0  0  0  0  0  0  0  0  0  0  0  0
    3.3227   -4.6069    0.0000 C   0  0  0  0  0  0  0  0  0  0  0  0
    5.3209   -3.4551    0.0000 C   0  0  0  0  0  0  0  0  0  0  0  0
    2.6605   -3.4551    0.0000 C   0  0  0  0  0  0  0  0  0  0  0  0
    4.6529   -2.3034    0.0000 C   0  0  0  0  0  0  0  0  0  0  0  0
    1.3302   -3.4551    0.0000 C   0  0  0  0  0  0  0  0  0  0  0  0
    3.3227   -2.3034    0.0000 C   0  0  0  0  0  0  0  0  0  0  0  0
    1.3302   -2.1249    0.0000 F   0  0  0  0  0  0  0  0  0  0  0  0
    1.3302   -4.7854    0.0000 F   0  0  0  0  0  0  0  0  0  0  0  0
    0.0000   -3.4551    0.0000 F   0  0  0  0  0  0  0  0  0  0  0  0
    2.6605   -1.1517    0.0000 N   0  0  0  0  0  0  0  0  0  0  0  0
    1.3302   -1.1517    0.0000 O   0  0  0  0  0  0  0  0  0  0  0  0
    3.3227   -0.0000    0.0000 O   0  0  0  0  0  0  0  0  0  0  0  0
  1  2  1  0  0  0  0 
  2  3  2  0  0  0  0 
  2  4  1  0  0  0  0 
  3  5  1  0  0  0  0 
  6  4  2  0  0  0  0 
  5  7  1  0  0  0  0 
  5  8  2  0  0  0  0 
  8  6  1  0  0  0  0 
  7  9  1  0  0  0  0 
  7 10  1  0  0  0  0 
  7 11  1  0  0  0  0 
  8 12  1  0  0  0  0 
 12 13  1  0  0  0  0 
 12 14  2  0  0  0  0 
M  CHG  1  12   1
M  CHG  1  13  -1
M  END
> <Name>
m-Cresol, alpha,alpha,alpha-trifluoro-4-nitro-

> <Source>
DSSTox2DMolFile

> <Tox>
4.510

> <CAS>
88-30-2

$$$$

  CDK

 10 10  0  0  0  0  0  0  0  0999 V2000
    2.6582   -1.1499    0.0000 C   0  0  0  0  0  0  0  0  0  0  0  0
    1.9971   -0.0000    0.0000 N   0  0  0  0  0  0  0  0  0  0  0  0
    3.9896   -1.1499    0.0000 C   0  0  0  0  0  0  0  0  0  0  0  0
    1.9971   -2.3044    0.0000 C   0  0  0  0  0  0  0  0  0  0  0  0
    4.6553   -2.3044    0.0000 C   0  0  0  0  0  0  0  0  0  0  0  0
    2.6582   -3.4542    0.0000 C   0  0  0  0  0  0  0  0  0  0  0  0
    0.6657   -2.3044    0.0000 C   0  0  0  0  0  0  0  0  0  0  0  0
    3.9896   -3.4542    0.0000 C   0  0  0  0  0  0  0  0  0  0  0  0
    0.0000   -3.4542    0.0000 O   0  0  0  0  0  0  0  0  0  0  0  0
    0.0000   -1.1499    0.0000 N   0  0  0  0  0  0  0  0  0  0  0  0
  1  2  1  0  0  0  0 
  1  3  2  0  0  0  0 
  1  4  1  0  0  0  0 
  3  5  1  0  0  0  0 
  6  4  2  0  0  0  0 
  4  7  1  0  0  0  0 
  5  8  2  0  0  0  0 
  8  6  1  0  0  0  0 
  7  9  2  0  0  0  0 
  7 10  1  0  0  0  0 
M  END
> <Name>
Benzamide, o-amino- (VAN) (8CI)

> <Source>
DSSTox2DMolFile

> <Tox>
2.537

> <CAS>
88-68-6

$$$$

  CDK

 10 10  0  0  0  0  0  0  0  0999 V2000
    2.6582   -0.0000    0.0000 O   0  0  0  0  0  0  0  0  0  0  0  0
    1.9971   -1.1499    0.0000 C   0  0  0  0  0  0  0  0  0  0  0  0
    2.6582   -2.3044    0.0000 C   0  0  0  0  0  0  0  0  0  0  0  0
    0.6657   -1.1499    0.0000 C   0  0  0  0  0  0  0  0  0  0  0  0
    3.9896   -2.3044    0.0000 N   0  0  0  0  0  0  0  0  0  0  0  0
    1.9971   -3.4542    0.0000 C   0  0  0  0  0  0  0  0  0  0  0  0
    0.0000   -2.3044    0.0000 C   0  0  0  0  0  0  0  0  0  0  0  0
    4.6553   -1.1499    0.0000 O   0  0  0  0  0  0  0  0  0  0  0  0
    4.6553   -3.4542    0.0000 O   0  0  0  0  0  0  0  0  0  0  0  0
    0.6657   -3.4542    0.0000 C   0  0  0  0  0  0  0  0  0  0  0  0
  1  2  1  0  0  0  0 
  2  3  2  0  0  0  0 
  2  4  1  0  0  0  0 
  3  5  1  0  0  0  0 
  3  6  1  0  0  0  0 
  7  4  2  0  0  0  0 
  5  8  1  0  0  0  0 
  5  9  2  0  0  0  0 
  6 10  2  0  0  0  0 
 10  7  1  0  0  0  0 
M  CHG  1   5   1
M  CHG  1   8  -1
M  END
> <Name>
Phenol, 2-nitro-

> <Source>
DSSTox2DMolFile

> <Tox>
2.939

> <CAS>
88-75-5

$$$$

  CDK

 17 17  0  0  0  0  0  0  0  0999 V2000
    1.9970   -1.1540    0.0000 O   0  0  0  0  0  0  0  0  0  0  0  0
    2.6604   -2.3010    0.0000 C   0  0  0  0  0  0  0  0  0  0  0  0
    3.9871   -2.3010    0.0000 C   0  0  0  0  0  0  0  0  0  0  0  0
    1.9970   -3.4550    0.0000 C   0  0  0  0  0  0  0  0  0  0  0  0
    4.6574   -3.4550    0.0000 C   0  0  0  0  0  0  0  0  0  0  0  0
    4.6574   -1.1540    0.0000 N   0  0  0  0  0  0  0  0  0  0  0  0
    2.6604   -4.6090    0.0000 C   0  0  0  0  0  0  0  0  0  0  0  0
    0.6634   -3.4550    0.0000 C   0  0  0  0  0  0  0  0  0  0  0  0
    3.9871   -4.6090    0.0000 C   0  0  0  0  0  0  0  0  0  0  0  0
    3.9871   -0.0000    0.0000 O   0  0  0  0  0  0  0  0  0  0  0  0
    5.9841   -1.1540    0.0000 O   0  0  0  0  0  0  0  0  0  0  0  0
    0.0000   -4.6090    0.0000 C   0  0  0  0  0  0  0  0  0  0  0  0
    0.0000   -2.3010    0.0000 C   0  0  0  0  0  0  0  0  0  0  0  0
    4.6574   -5.7560    0.0000 N   0  0  0  0  0  0  0  0  0  0  0  0
    0.6634   -5.7560    0.0000 C   0  0  0  0  0  0  0  0  0  0  0  0
    3.9871   -6.9100    0.0000 O   0  0  0  0  0  0  0  0  0  0  0  0
    5.9841   -5.7560    0.0000 O   0  0  0  0  0  0  0  0  0  0  0  0
  1  2  1  0  0  0  0 
  2  3  2  0  0  0  0 
  2  4  1  0  0  0  0 
  3  5  1  0  0  0  0 
  3  6  1  0  0  0  0 
  7  4  2  0  0  0  0 
  4  8  1  0  0  0  0 
  5  9  2  0  0  0  0 
  6 10  2  0  0  0  0 
  6 11  1  0  0  0  0 
  9  7  1  0  0  0  0 
  8 12  1  0  0  0  0 
  8 13  1  0  0  0  0 
  9 14  1  0  0  0  0 
 12 15  1  0  0  0  0 
 14 16  2  0  0  0  0 
 14 17  1  0  0  0  0 
M  CHG  1   6   1
M  CHG  1  11  -1
M  CHG  1  14   1
M  CHG  1  17  -1
M  END
> <Name>
Phenol, 2-(1-methylpropyl)-4,6-dinitro-

> <Source>
DSSTox2DMolFile

> <Tox>
6.191

> <CAS>
88-85-7

$$$$

  CDK

 11 11  0  0  0  0  0  0  0  0999 V2000
    0.0000   -3.4582    0.0000 O   0  0  0  0  0  0  0  0  0  0  0  0
    0.6656   -2.3039    0.0000 N   0  0  0  0  0  0  0  0  0  0  0  0
    0.0000   -1.1543    0.0000 O   0  0  0  0  0  0  0  0  0  0  0  0
    1.9968   -2.3039    0.0000 C   0  0  0  0  0  0  0  0  0  0  0  0
    2.6577   -1.1543    0.0000 C   0  0  0  0  0  0  0  0  0  0  0  0
    2.6577   -3.4582    0.0000 C   0  0  0  0  0  0  0  0  0  0  0  0
    1.9968   -0.0000    0.0000 N   0  0  0  0  0  0  0  0  0  0  0  0
    3.9889   -1.1543    0.0000 C   0  0  0  0  0  0  0  0  0  0  0  0
    3.9889   -3.4582    0.0000 C   0  0  0  0  0  0  0  0  0  0  0  0
    4.6544   -2.3039    0.0000 C   0  0  0  0  0  0  0  0  0  0  0  0
    4.6544   -4.6079    0.0000 C   0  0  0  0  0  0  0  0  0  0  0  0
  1  2  1  0  0  0  0 
  2  3  2  0  0  0  0 
  2  4  1  0  0  0  0 
  4  5  2  0  0  0  0 
  4  6  1  0  0  0  0 
  5  7  1  0  0  0  0 
  5  8  1  0  0  0  0 
  9  6  2  0  0  0  0 
  8 10  2  0  0  0  0 
 10  9  1  0  0  0  0 
  9 11  1  0  0  0  0 
M  CHG  1   1  -1
M  CHG  1   2   1
M  END
> <Name>
Benzenamine, 4-methyl-2-nitro-

> <Source>
DSSTox2DMolFile

> <Tox>
3.788

> <CAS>
89-62-3

$$$$

  CDK

  9  9  0  0  0  0  0  0  0  0999 V2000
    4.6563   -3.4550    0.0000 O   0  0  0  0  0  0  0  0  0  0  0  0
    3.9905   -2.3049    0.0000 C   0  0  0  0  0  0  0  0  0  0  0  0
    2.6588   -2.3049    0.0000 C   0  0  0  0  0  0  0  0  0  0  0  0
    1.9976   -3.4550    0.0000 C   0  0  0  0  0  0  0  0  0  0  0  0
    1.9976   -1.1501    0.0000 C   0  0  0  0  0  0  0  0  0  0  0  0
    0.6659   -3.4550    0.0000 C   0  0  0  0  0  0  0  0  0  0  0  0
    0.6659   -1.1501    0.0000 C   0  0  0  0  0  0  0  0  0  0  0  0
    2.6588   -0.0000    0.0000 O   0  0  0  0  0  0  0  0  0  0  0  0
    0.0000   -2.3049    0.0000 C   0  0  0  0  0  0  0  0  0  0  0  0
  1  2  2  0  0  0  0 
  2  3  1  0  0  0  0 
  3  4  2  0  0  0  0 
  3  5  1  0  0  0  0 
  4  6  1  0  0  0  0 
  7  5  2  0  0  0  0 
  5  8  1  0  0  0  0 
  6  9  2  0  0  0  0 
  9  7  1  0  0  0  0 
M  END
> <Name>
Benzaldehyde, 2-hydroxy-

> <Source>
DSSTox2DMolFile

> <Tox>
4.725

> <CAS>
90-02-8

$$$$

  CDK

 11 12  0  0  0  0  0  0  0  0999 V2000
    3.4555   -0.0000    0.0000 O   0  0  0  0  0  0  0  0  0  0  0  0
    3.4555   -1.3315    0.0000 C   0  0  0  0  0  0  0  0  0  0  0  0
    4.6073   -1.9950    0.0000 C   0  0  0  0  0  0  0  0  0  0  0  0
    2.3037   -1.9950    0.0000 C   0  0  0  0  0  0  0  0  0  0  0  0
    4.6073   -3.3265    0.0000 C   0  0  0  0  0  0  0  0  0  0  0  0
    2.3037   -3.3265    0.0000 C   0  0  0  0  0  0  0  0  0  0  0  0
    1.1518   -1.3315    0.0000 C   0  0  0  0  0  0  0  0  0  0  0  0
    3.4555   -3.9899    0.0000 C   0  0  0  0  0  0  0  0  0  0  0  0
    1.1518   -3.9899    0.0000 C   0  0  0  0  0  0  0  0  0  0  0  0
    0.0000   -1.9950    0.0000 C   0  0  0  0  0  0  0  0  0  0  0  0
    0.0000   -3.3265    0.0000 C   0  0  0  0  0  0  0  0  0  0  0  0
  1  2  1  0  0  0  0 
  2  3  2  0  0  0  0 
  2  4  1  0  0  0  0 
  3  5  1  0  0  0  0 
  6  4  1  0  0  0  0 
  7  4  2  0  0  0  0 
  5  8  2  0  0  0  0 
  8  6  1  0  0  0  0 
  6  9  2  0  0  0  0 
 10  7  1  0  0  0  0 
  9 11  1  0  0  0  0 
 11 10  2  0  0  0  0 
M  END
> <Name>
1-Naphthalenol

> <Source>
DSSTox2DMolFile

> <Tox>
4.538

> <CAS>
90-15-3

$$$$

  CDK

 11 11  0  0  0  0  0  0  0  0999 V2000
    1.3306   -5.7600    0.0000 Br  0  0  0  0  0  0  0  0  0  0  0  0
    1.9930   -4.6080    0.0000 C   0  0  0  0  0  0  0  0  0  0  0  0
    1.3306   -3.4560    0.0000 C   0  0  0  0  0  0  0  0  0  0  0  0
    3.3235   -4.6080    0.0000 C   0  0  0  0  0  0  0  0  0  0  0  0
    0.0000   -3.4560    0.0000 O   0  0  0  0  0  0  0  0  0  0  0  0
    1.9930   -2.3040    0.0000 C   0  0  0  0  0  0  0  0  0  0  0  0
    3.9917   -3.4560    0.0000 C   0  0  0  0  0  0  0  0  0  0  0  0
    1.3306   -1.1520    0.0000 C   0  0  0  0  0  0  0  0  0  0  0  0
    3.3235   -2.3040    0.0000 C   0  0  0  0  0  0  0  0  0  0  0  0
    5.3222   -3.4560    0.0000 Br  0  0  0  0  0  0  0  0  0  0  0  0
    1.9930   -0.0000    0.0000 O   0  0  0  0  0  0  0  0  0  0  0  0
  1  2  1  0  0  0  0 
  2  3  2  0  0  0  0 
  2  4  1  0  0  0  0 
  3  5  1  0  0  0  0 
  3  6  1  0  0  0  0 
  7  4  2  0  0  0  0 
  6  8  1  0  0  0  0 
  6  9  2  0  0  0  0 
  9  7  1  0  0  0  0 
  7 10  1  0  0  0  0 
  8 11  2  0  0  0  0 
M  END
> <Name>
Salicylaldehyde, 3,5-dibromo- (6CI,7CI,8CI)

> <Source>
DSSTox2DMolFile

> <Tox>
5.518

> <CAS>
90-59-5

$$$$

  CDK

 10 11  0  0  0  0  0  0  0  0999 V2000
    3.4558   -2.6587    0.0000 N   0  0  0  0  0  0  0  0  0  0  0  0
    4.6078   -1.9952    0.0000 C   0  0  0  0  0  0  0  0  0  0  0  0
    2.3039   -1.9952    0.0000 C   0  0  0  0  0  0  0  0  0  0  0  0
    4.6078   -0.6635    0.0000 C   0  0  0  0  0  0  0  0  0  0  0  0
    2.3039   -0.6635    0.0000 C   0  0  0  0  0  0  0  0  0  0  0  0
    1.1519   -2.6587    0.0000 C   0  0  0  0  0  0  0  0  0  0  0  0
    3.4558   -0.0000    0.0000 C   0  0  0  0  0  0  0  0  0  0  0  0
    1.1519   -0.0000    0.0000 C   0  0  0  0  0  0  0  0  0  0  0  0
    0.0000   -1.9952    0.0000 C   0  0  0  0  0  0  0  0  0  0  0  0
    0.0000   -0.6635    0.0000 C   0  0  0  0  0  0  0  0  0  0  0  0
  1  2  2  0  0  0  0 
  1  3  1  0  0  0  0 
  2  4  1  0  0  0  0 
  5  3  2  0  0  0  0 
  3  6  1  0  0  0  0 
  4  7  2  0  0  0  0 
  7  5  1  0  0  0  0 
  5  8  1  0  0  0  0 
  6  9  2  0  0  0  0 
 10  8  2  0  0  0  0 
  9 10  1  0  0  0  0 
M  END
> <Name>
Quinoline

> <Source>
DSSTox2DMolFile

> <Tox>
3.448

> <CAS>
91-22-5

$$$$

  CDK

 11 11  0  0  0  0  0  0  0  0999 V2000
    1.9971   -0.0000    0.0000 C   0  0  0  0  0  0  0  0  0  0  0  0
    2.6581   -1.1545    0.0000 O   0  0  0  0  0  0  0  0  0  0  0  0
    1.9971   -2.3043    0.0000 C   0  0  0  0  0  0  0  0  0  0  0  0
    2.6581   -3.4588    0.0000 C   0  0  0  0  0  0  0  0  0  0  0  0
    0.6657   -2.3043    0.0000 C   0  0  0  0  0  0  0  0  0  0  0  0
    1.9971   -4.6086    0.0000 C   0  0  0  0  0  0  0  0  0  0  0  0
    3.9895   -3.4588    0.0000 N   0  0  0  0  0  0  0  0  0  0  0  0
    0.0000   -3.4588    0.0000 C   0  0  0  0  0  0  0  0  0  0  0  0
    0.6657   -4.6086    0.0000 C   0  0  0  0  0  0  0  0  0  0  0  0
    4.6552   -2.3043    0.0000 O   0  0  0  0  0  0  0  0  0  0  0  0
    4.6552   -4.6086    0.0000 O   0  0  0  0  0  0  0  0  0  0  0  0
  1  2  1  0  0  0  0 
  2  3  1  0  0  0  0 
  3  4  2  0  0  0  0 
  3  5  1  0  0  0  0 
  4  6  1  0  0  0  0 
  4  7  1  0  0  0  0 
  8  5  2  0  0  0  0 
  6  9  2  0  0  0  0 
  7 10  2  0  0  0  0 
  7 11  1  0  0  0  0 
  9  8  1  0  0  0  0 
M  CHG  1   7   1
M  CHG  1  11  -1
M  END
> <Name>
Benzene, 1-methoxy-2-nitro-

> <Source>
DSSTox2DMolFile

> <Tox>
2.904

> <CAS>
91-23-6

$$$$

  CDK

 11 11  0  0  0  0  0  0  0  0999 V2000
    0.0000   -2.3044    0.0000 C   0  0  0  0  0  0  0  0  0  0  0  0
    1.3288   -2.3044    0.0000 C   0  0  0  0  0  0  0  0  0  0  0  0
    1.9932   -1.1552    0.0000 N   0  0  0  0  0  0  0  0  0  0  0  0
    1.3288   -0.0000    0.0000 C   0  0  0  0  0  0  0  0  0  0  0  0
    3.3279   -1.1552    0.0000 C   0  0  0  0  0  0  0  0  0  0  0  0
    0.0000   -0.0000    0.0000 C   0  0  0  0  0  0  0  0  0  0  0  0
    3.9923   -0.0000    0.0000 C   0  0  0  0  0  0  0  0  0  0  0  0
    3.9923   -2.3044    0.0000 C   0  0  0  0  0  0  0  0  0  0  0  0
    5.3211   -0.0000    0.0000 C   0  0  0  0  0  0  0  0  0  0  0  0
    5.3211   -2.3044    0.0000 C   0  0  0  0  0  0  0  0  0  0  0  0
    5.9855   -1.1552    0.0000 C   0  0  0  0  0  0  0  0  0  0  0  0
  1  2  1  0  0  0  0 
  2  3  1  0  0  0  0 
  3  4  1  0  0  0  0 
  3  5  1  0  0  0  0 
  4  6  1  0  0  0  0 
  5  7  1  0  0  0  0 
  5  8  1  0  0  0  0 
  7  9  1  0  0  0  0 
 10  8  1  0  0  0  0 
  9 11  1  0  0  0  0 
 11 10  1  0  0  0  0 
M  END
> <Name>
Cyclohexylamine, N,N-diethyl- (6CI,7CI,8CI)

> <Source>
DSSTox2DMolFile

> <Tox>
3.861

> <CAS>
91-65-6

$$$$

  CDK

 11 11  0  0  0  0  0  0  0  0999 V2000
    0.0000   -2.3044    0.0000 C   0  0  0  0  0  0  0  0  0  0  0  0
    1.3288   -2.3044    0.0000 C   0  0  0  0  0  0  0  0  0  0  0  0
    1.9932   -1.1552    0.0000 N   0  0  0  0  0  0  0  0  0  0  0  0
    1.3288   -0.0000    0.0000 C   0  0  0  0  0  0  0  0  0  0  0  0
    3.3279   -1.1552    0.0000 C   0  0  0  0  0  0  0  0  0  0  0  0
    0.0000   -0.0000    0.0000 C   0  0  0  0  0  0  0  0  0  0  0  0
    3.9923   -0.0000    0.0000 C   0  0  0  0  0  0  0  0  0  0  0  0
    3.9923   -2.3044    0.0000 C   0  0  0  0  0  0  0  0  0  0  0  0
    5.3211   -0.0000    0.0000 C   0  0  0  0  0  0  0  0  0  0  0  0
    5.3211   -2.3044    0.0000 C   0  0  0  0  0  0  0  0  0  0  0  0
    5.9855   -1.1552    0.0000 C   0  0  0  0  0  0  0  0  0  0  0  0
  1  2  1  0  0  0  0 
  2  3  1  0  0  0  0 
  3  4  1  0  0  0  0 
  3  5  1  0  0  0  0 
  4  6  1  0  0  0  0 
  5  7  2  0  0  0  0 
  5  8  1  0  0  0  0 
  7  9  1  0  0  0  0 
 10  8  2  0  0  0  0 
  9 11  2  0  0  0  0 
 11 10  1  0  0  0  0 
M  END
> <Name>
Benzenamine, N,N-diethyl-

> <Source>
DSSTox2DMolFile

> <Tox>
3.959

> <CAS>
91-66-7

$$$$

  CDK

 13 13  0  0  0  0  0  0  0  0999 V2000
    0.0000   -2.3080    0.0000 O   0  0  0  0  0  0  0  0  0  0  0  0
    0.6651   -3.4587    0.0000 C   0  0  0  0  0  0  0  0  0  0  0  0
    1.9954   -3.4587    0.0000 C   0  0  0  0  0  0  0  0  0  0  0  0
    2.6606   -2.3080    0.0000 N   0  0  0  0  0  0  0  0  0  0  0  0
    1.9954   -1.1573    0.0000 C   0  0  0  0  0  0  0  0  0  0  0  0
    3.9909   -2.3080    0.0000 C   0  0  0  0  0  0  0  0  0  0  0  0
    0.6651   -1.1573    0.0000 C   0  0  0  0  0  0  0  0  0  0  0  0
    4.6560   -1.1573    0.0000 C   0  0  0  0  0  0  0  0  0  0  0  0
    4.6560   -3.4587    0.0000 C   0  0  0  0  0  0  0  0  0  0  0  0
    5.9863   -1.1573    0.0000 C   0  0  0  0  0  0  0  0  0  0  0  0
    5.9863   -3.4587    0.0000 C   0  0  0  0  0  0  0  0  0  0  0  0
    6.6514   -0.0000    0.0000 C   0  0  0  0  0  0  0  0  0  0  0  0
    6.6514   -2.3080    0.0000 C   0  0  0  0  0  0  0  0  0  0  0  0
  1  2  1  0  0  0  0 
  2  3  1  0  0  0  0 
  3  4  1  0  0  0  0 
  4  5  1  0  0  0  0 
  4  6  1  0  0  0  0 
  5  7  1  0  0  0  0 
  6  8  2  0  0  0  0 
  6  9  1  0  0  0  0 
  8 10  1  0  0  0  0 
 11  9  2  0  0  0  0 
 10 12  1  0  0  0  0 
 10 13  2  0  0  0  0 
 13 11  1  0  0  0  0 
M  END
> <Name>
Ethanol, 2-(ethyl(3-methylphenyl)amino)-

> <Source>
DSSTox2DMolFile

> <Tox>
3.530

> <CAS>
91-88-3

$$$$

  CDK

 16 17  0  0  0  0  0  0  0  0999 V2000
    7.9825   -0.0000    0.0000 Cl  0  0  0  0  0  0  0  0  0  0  0  0
    7.3211   -1.1550    0.0000 C   0  0  0  0  0  0  0  0  0  0  0  0
    7.9825   -2.3100    0.0000 C   0  0  0  0  0  0  0  0  0  0  0  0
    5.9892   -1.1550    0.0000 C   0  0  0  0  0  0  0  0  0  0  0  0
    7.3211   -3.4557    0.0000 C   0  0  0  0  0  0  0  0  0  0  0  0
    9.3144   -2.3100    0.0000 N   0  0  0  0  0  0  0  0  0  0  0  0
    5.3185   -2.3100    0.0000 C   0  0  0  0  0  0  0  0  0  0  0  0
    5.9892   -3.4557    0.0000 C   0  0  0  0  0  0  0  0  0  0  0  0
    3.9959   -2.3100    0.0000 C   0  0  0  0  0  0  0  0  0  0  0  0
    3.3253   -3.4557    0.0000 C   0  0  0  0  0  0  0  0  0  0  0  0
    3.3253   -1.1550    0.0000 C   0  0  0  0  0  0  0  0  0  0  0  0
    1.9933   -3.4557    0.0000 C   0  0  0  0  0  0  0  0  0  0  0  0
    1.9933   -1.1550    0.0000 C   0  0  0  0  0  0  0  0  0  0  0  0
    1.3320   -2.3100    0.0000 C   0  0  0  0  0  0  0  0  0  0  0  0
    1.3320   -4.6106    0.0000 Cl  0  0  0  0  0  0  0  0  0  0  0  0
    0.0000   -2.3100    0.0000 N   0  0  0  0  0  0  0  0  0  0  0  0
  1  2  1  0  0  0  0 
  2  3  2  0  0  0  0 
  2  4  1  0  0  0  0 
  3  5  1  0  0  0  0 
  3  6  1  0  0  0  0 
  7  4  2  0  0  0  0 
  5  8  2  0  0  0  0 
  8  7  1  0  0  0  0 
  7  9  1  0  0  0  0 
  9 10  2  0  0  0  0 
  9 11  1  0  0  0  0 
 10 12  1  0  0  0  0 
 13 11  2  0  0  0  0 
 12 14  2  0  0  0  0 
 12 15  1  0  0  0  0 
 14 13  1  0  0  0  0 
 14 16  1  0  0  0  0 
M  END
> <Name>
(1,1'-Biphenyl)-4,4'-diamine, 3,3'-dichloro-

> <Source>
DSSTox2DMolFile

> <Tox>
5.085

> <CAS>
91-94-1

$$$$

  CDK

 12 13  0  0  0  0  0  0  0  0999 V2000
    1.9961   -0.0000    0.0000 C   0  0  0  0  0  0  0  0  0  0  0  0
    2.6615   -1.1511    0.0000 C   0  0  0  0  0  0  0  0  0  0  0  0
    0.6654   -0.0000    0.0000 C   0  0  0  0  0  0  0  0  0  0  0  0
    1.9961   -2.3022    0.0000 C   0  0  0  0  0  0  0  0  0  0  0  0
    3.9922   -1.1511    0.0000 C   0  0  0  0  0  0  0  0  0  0  0  0
    0.0000   -1.1511    0.0000 C   0  0  0  0  0  0  0  0  0  0  0  0
    0.6654   -2.3022    0.0000 C   0  0  0  0  0  0  0  0  0  0  0  0
    4.6575   -0.0000    0.0000 C   0  0  0  0  0  0  0  0  0  0  0  0
    4.6575   -2.3022    0.0000 C   0  0  0  0  0  0  0  0  0  0  0  0
    5.9883   -0.0000    0.0000 C   0  0  0  0  0  0  0  0  0  0  0  0
    5.9883   -2.3022    0.0000 C   0  0  0  0  0  0  0  0  0  0  0  0
    6.6536   -1.1511    0.0000 C   0  0  0  0  0  0  0  0  0  0  0  0
  1  2  2  0  0  0  0 
  1  3  1  0  0  0  0 
  2  4  1  0  0  0  0 
  2  5  1  0  0  0  0 
  6  3  2  0  0  0  0 
  4  7  2  0  0  0  0 
  5  8  2  0  0  0  0 
  5  9  1  0  0  0  0 
  7  6  1  0  0  0  0 
  8 10  1  0  0  0  0 
 11  9  2  0  0  0  0 
 10 12  2  0  0  0  0 
 12 11  1  0  0  0  0 
M  END
> <Name>
1,1'-Biphenyl

> <Source>
DSSTox2DMolFile

> <Tox>
4.720

> <CAS>
92-52-4

$$$$

  CDK

 15 15  0  0  0  0  0  0  0  0999 V2000
    3.9868   -0.0000    0.0000 Cl  0  0  0  0  0  0  0  0  0  0  0  0
    3.3285   -1.1485    0.0000 C   0  0  0  0  0  0  0  0  0  0  0  0
    3.9868   -2.3043    0.0000 C   0  0  0  0  0  0  0  0  0  0  0  0
    1.9971   -1.1485    0.0000 C   0  0  0  0  0  0  0  0  0  0  0  0
    3.3285   -3.4528    0.0000 C   0  0  0  0  0  0  0  0  0  0  0  0
    5.3182   -2.3043    0.0000 O   0  0  0  0  0  0  0  0  0  0  0  0
    1.3314   -2.3043    0.0000 C   0  0  0  0  0  0  0  0  0  0  0  0
    1.9971   -3.4528    0.0000 C   0  0  0  0  0  0  0  0  0  0  0  0
    5.9839   -3.4528    0.0000 C   0  0  0  0  0  0  0  0  0  0  0  0
    0.0000   -2.3043    0.0000 Cl  0  0  0  0  0  0  0  0  0  0  0  0
    1.3314   -4.6086    0.0000 Cl  0  0  0  0  0  0  0  0  0  0  0  0
    5.3182   -4.6086    0.0000 C   0  0  0  0  0  0  0  0  0  0  0  0
    7.3153   -3.4528    0.0000 C   0  0  0  0  0  0  0  0  0  0  0  0
    5.9839   -5.7571    0.0000 O   0  0  0  0  0  0  0  0  0  0  0  0
    3.9868   -4.6086    0.0000 O   0  0  0  0  0  0  0  0  0  0  0  0
  1  2  1  0  0  0  0 
  2  3  2  0  0  0  0 
  2  4  1  0  0  0  0 
  3  5  1  0  0  0  0 
  3  6  1  0  0  0  0 
  7  4  2  0  0  0  0 
  5  8  2  0  0  0  0 
  6  9  1  0  0  0  0 
  8  7  1  0  0  0  0 
  7 10  1  0  0  0  0 
  8 11  1  0  0  0  0 
  9 12  1  0  0  0  0 
  9 13  1  0  0  0  0 
 12 14  2  0  0  0  0 
 12 15  1  0  0  0  0 
M  END
> <Name>
Propionic acid, 2-(2,4,5-trichlorophenoxy)-

> <Source>
DSSTox2DMolFile

> <Tox>
4.198

> <CAS>
93-72-1

$$$$

  CDK

 11 11  0  0  0  0  0  0  0  0999 V2000
   -0.7433    0.6990   -0.0003 C   0  0  0  0  0  0  0  0  0  0  0  0
    0.6597    0.2046   -0.0001 C   0  0  0  0  0  0  0  0  0  0  0  0
   -1.1090    1.8608   -0.0009 O   0  0  0  0  0  0  0  0  0  0  0  0
   -1.6902   -0.2836    0.0003 O   0  0  0  0  0  0  0  0  0  0  0  0
    1.6948    1.1450    0.0005 C   0  0  0  0  0  0  0  0  0  0  0  0
    0.9651   -1.1590   -0.0006 C   0  0  0  0  0  0  0  0  0  0  0  0
   -3.0672    0.0999    0.0004 C   0  0  0  0  0  0  0  0  0  0  0  0
    3.0192    0.7230    0.0007 C   0  0  0  0  0  0  0  0  0  0  0  0
    2.2926   -1.5726   -0.0005 C   0  0  0  0  0  0  0  0  0  0  0  0
   -3.8683   -1.1880    0.0003 C   0  0  0  0  0  0  0  0  0  0  0  0
    3.3198   -0.6349    0.0002 C   0  0  0  0  0  0  0  0  0  0  0  0
  1  2  1  0  0  0  0 
  1  3  2  0  0  0  0 
  1  4  1  0  0  0  0 
  2  5  1  0  0  0  0 
  2  6  2  0  0  0  0 
  4  7  1  0  0  0  0 
  5  8  2  0  0  0  0 
  9  6  1  0  0  0  0 
  7 10  1  0  0  0  0 
  8 11  1  0  0  0  0 
 11  9  2  0  0  0  0 
M  END
> <Name>
Benzoic acid, ethyl ester

> <Source>
DougDB3DMolFile

> <Tox>
4.247

> <CAS>
93-89-0

$$$$

  CDK

 12 12  0  0  0  0  0  0  0  0999 V2000
    1.9955   -3.4588    0.0000 C   0  0  0  0  0  0  0  0  0  0  0  0
    0.6652   -3.4588    0.0000 C   0  0  0  0  0  0  0  0  0  0  0  0
    2.6606   -2.3081    0.0000 C   0  0  0  0  0  0  0  0  0  0  0  0
    0.0000   -2.3081    0.0000 C   0  0  0  0  0  0  0  0  0  0  0  0
    1.9955   -1.1574    0.0000 C   0  0  0  0  0  0  0  0  0  0  0  0
    3.9909   -2.3081    0.0000 C   0  0  0  0  0  0  0  0  0  0  0  0
    0.6652   -1.1574    0.0000 C   0  0  0  0  0  0  0  0  0  0  0  0
    4.6561   -3.4588    0.0000 O   0  0  0  0  0  0  0  0  0  0  0  0
    4.6561   -1.1574    0.0000 C   0  0  0  0  0  0  0  0  0  0  0  0
    5.9864   -1.1574    0.0000 C   0  0  0  0  0  0  0  0  0  0  0  0
    6.6515   -0.0000    0.0000 O   0  0  0  0  0  0  0  0  0  0  0  0
    6.6515   -2.3081    0.0000 C   0  0  0  0  0  0  0  0  0  0  0  0
  1  2  2  0  0  0  0 
  1  3  1  0  0  0  0 
  2  4  1  0  0  0  0 
  5  3  2  0  0  0  0 
  3  6  1  0  0  0  0 
  4  7  2  0  0  0  0 
  7  5  1  0  0  0  0 
  6  8  2  0  0  0  0 
  6  9  1  0  0  0  0 
  9 10  1  0  0  0  0 
 10 11  2  0  0  0  0 
 10 12  1  0  0  0  0 
M  END
> <Name>
1,3-Butanedione, 1-phenyl-

> <Source>
DSSTox2DMolFile

> <Tox>
5.169

> <CAS>
93-91-4

$$$$

  CDK

 12 12  0  0  0  0  0  0  0  0999 V2000
    3.3259   -3.4535    0.0000 C   0  0  0  0  0  0  0  0  0  0  0  0
    1.9939   -3.4535    0.0000 C   0  0  0  0  0  0  0  0  0  0  0  0
    3.9879   -2.3050    0.0000 C   0  0  0  0  0  0  0  0  0  0  0  0
    1.3320   -2.3050    0.0000 C   0  0  0  0  0  0  0  0  0  0  0  0
    3.3259   -1.1485    0.0000 C   0  0  0  0  0  0  0  0  0  0  0  0
    5.3199   -2.3050    0.0000 C   0  0  0  0  0  0  0  0  0  0  0  0
    0.0000   -2.3050    0.0000 N   0  0  0  0  0  0  0  0  0  0  0  0
    1.9939   -1.1485    0.0000 C   0  0  0  0  0  0  0  0  0  0  0  0
    5.9818   -3.4535    0.0000 O   0  0  0  0  0  0  0  0  0  0  0  0
    5.9818   -1.1485    0.0000 O   0  0  0  0  0  0  0  0  0  0  0  0
    7.3138   -1.1485    0.0000 C   0  0  0  0  0  0  0  0  0  0  0  0
    7.9758   -0.0000    0.0000 C   0  0  0  0  0  0  0  0  0  0  0  0
  1  2  2  0  0  0  0 
  1  3  1  0  0  0  0 
  2  4  1  0  0  0  0 
  5  3  2  0  0  0  0 
  3  6  1  0  0  0  0 
  4  7  1  0  0  0  0 
  4  8  2  0  0  0  0 
  8  5  1  0  0  0  0 
  6  9  2  0  0  0  0 
  6 10  1  0  0  0  0 
 10 11  1  0  0  0  0 
 11 12  1  0  0  0  0 
M  END
> <Name>
Benzoic acid, 4-amino-, ethyl ester

> <Source>
DSSTox2DMolFile

> <Tox>
3.665

> <CAS>
94-09-7

$$$$

  CDK

 10 10  0  0  0  0  0  0  0  0999 V2000
    1.3259    0.8606    0.0000 C   0  0  0  0  0  0  0  0  0  0  0  0
   -0.0864    0.4888    0.0000 C   0  0  0  0  0  0  0  0  0  0  0  0
    2.2324   -0.0753    0.0000 N   0  0  0  0  0  0  0  0  0  0  0  0
   -0.5357   -0.8487    0.0000 C   0  0  0  0  0  0  0  0  0  0  0  0
   -1.0402    1.5177    0.0000 C   0  0  0  0  0  0  0  0  0  0  0  0
    3.5681    0.3560    0.0000 O   0  0  0  0  0  0  0  0  0  0  0  0
    0.2884   -1.9264    0.0000 O   0  0  0  0  0  0  0  0  0  0  0  0
   -1.9151   -1.1358    0.0000 C   0  0  0  0  0  0  0  0  0  0  0  0
   -2.3933    1.2300    0.0000 C   0  0  0  0  0  0  0  0  0  0  0  0
   -2.8283   -0.0977    0.0000 C   0  0  0  0  0  0  0  0  0  0  0  0
  1  2  1  0  0  0  0 
  1  3  2  0  0  0  0 
  2  4  1  0  0  0  0 
  2  5  2  0  0  0  0 
  3  6  1  0  0  0  0 
  4  7  1  0  0  0  0 
  4  8  2  0  0  0  0 
  9  5  1  0  0  0  0 
  8 10  1  0  0  0  0 
 10  9  2  0  0  0  0 
M  END
> <Name>
Benzaldehyde, 2-hydroxy-, oxime

> <Source>
DougDB3DMolFile

> <Tox>
4.628

> <CAS>
94-67-7

$$$$

  CDK

 13 13  0  0  0  0  0  0  0  0999 V2000
    5.7574   -3.9915    0.0000 Cl  0  0  0  0  0  0  0  0  0  0  0  0
    5.7574   -2.6610    0.0000 C   0  0  0  0  0  0  0  0  0  0  0  0
    4.6043   -1.9998    0.0000 C   0  0  0  0  0  0  0  0  0  0  0  0
    6.9105   -1.9998    0.0000 C   0  0  0  0  0  0  0  0  0  0  0  0
    4.6043   -0.6693    0.0000 C   0  0  0  0  0  0  0  0  0  0  0  0
    3.4593   -2.6610    0.0000 O   0  0  0  0  0  0  0  0  0  0  0  0
    6.9105   -0.6693    0.0000 C   0  0  0  0  0  0  0  0  0  0  0  0
    5.7574   -0.0000    0.0000 C   0  0  0  0  0  0  0  0  0  0  0  0
    2.3062   -1.9998    0.0000 C   0  0  0  0  0  0  0  0  0  0  0  0
    8.0636   -0.0000    0.0000 Cl  0  0  0  0  0  0  0  0  0  0  0  0
    1.1531   -2.6610    0.0000 C   0  0  0  0  0  0  0  0  0  0  0  0
    1.1531   -3.9915    0.0000 O   0  0  0  0  0  0  0  0  0  0  0  0
    0.0000   -1.9998    0.0000 O   0  0  0  0  0  0  0  0  0  0  0  0
  1  2  1  0  0  0  0 
  2  3  2  0  0  0  0 
  2  4  1  0  0  0  0 
  3  5  1  0  0  0  0 
  3  6  1  0  0  0  0 
  7  4  2  0  0  0  0 
  5  8  2  0  0  0  0 
  6  9  1  0  0  0  0 
  8  7  1  0  0  0  0 
  7 10  1  0  0  0  0 
  9 11  1  0  0  0  0 
 11 12  2  0  0  0  0 
 11 13  1  0  0  0  0 
M  END
> <Name>
Acetic acid, (2,4-dichlorophenoxy)-

> <Source>
DSSTox2DMolFile

> <Tox>
2.925

> <CAS>
94-75-7

$$$$

  CDK

 15 15  0  0  0  0  0  0  0  0999 V2000
    1.1401   -5.3123    0.0000 C   0  0  0  0  0  0  0  0  0  0  0  0
    2.3206   -5.9673    0.0000 C   0  0  0  0  0  0  0  0  0  0  0  0
    1.1401   -3.9944    0.0000 O   0  0  0  0  0  0  0  0  0  0  0  0
    0.0000   -6.0077    0.0000 O   0  0  0  0  0  0  0  0  0  0  0  0
    3.4445   -5.3123    0.0000 C   0  0  0  0  0  0  0  0  0  0  0  0
    4.6170   -5.9673    0.0000 C   0  0  0  0  0  0  0  0  0  0  0  0
    5.7651   -5.3123    0.0000 O   0  0  0  0  0  0  0  0  0  0  0  0
    5.7651   -3.9701    0.0000 C   0  0  0  0  0  0  0  0  0  0  0  0
    6.9295   -3.3071    0.0000 C   0  0  0  0  0  0  0  0  0  0  0  0
    4.6170   -3.3313    0.0000 C   0  0  0  0  0  0  0  0  0  0  0  0
    6.9295   -1.9891    0.0000 C   0  0  0  0  0  0  0  0  0  0  0  0
    8.0857   -3.9701    0.0000 C   0  0  0  0  0  0  0  0  0  0  0  0
    4.6170   -1.9891    0.0000 C   0  0  0  0  0  0  0  0  0  0  0  0
    5.7894   -1.3180    0.0000 C   0  0  0  0  0  0  0  0  0  0  0  0
    5.7894   -0.0000    0.0000 Cl  0  0  0  0  0  0  0  0  0  0  0  0
  1  2  1  0  0  0  0 
  1  3  1  0  0  0  0 
  1  4  2  0  0  0  0 
  2  5  1  0  0  0  0 
  5  6  1  0  0  0  0 
  6  7  1  0  0  0  0 
  7  8  1  0  0  0  0 
  8  9  2  0  0  0  0 
  8 10  1  0  0  0  0 
  9 11  1  0  0  0  0 
  9 12  1  0  0  0  0 
 10 13  2  0  0  0  0 
 11 14  2  0  0  0  0 
 13 14  1  0  0  0  0 
 14 15  1  0  0  0  0 
M  END
> <Name>
Butanoic acid, 4-(4-chloro-2-methylphenoxy)- (9CI)

> <Source>
DSSTox2DMolFile

> <Tox>
4.262

> <CAS>
94-81-5

$$$$

  CDK

 15 15  0  0  0  0  0  0  0  0999 V2000
    3.4583   -3.3649    0.0000 C   0  0  0  0  0  0  0  0  0  0  0  0
    2.2952   -4.0088    0.0000 C   0  0  0  0  0  0  0  0  0  0  0  0
    3.4583   -2.0252    0.0000 C   0  0  0  0  0  0  0  0  0  0  0  0
    4.6111   -4.0399    0.0000 Cl  0  0  0  0  0  0  0  0  0  0  0  0
    1.1528   -3.3545    0.0000 C   0  0  0  0  0  0  0  0  0  0  0  0
    2.2952   -1.3605    0.0000 C   0  0  0  0  0  0  0  0  0  0  0  0
    4.6111   -1.3501    0.0000 O   0  0  0  0  0  0  0  0  0  0  0  0
    0.0000   -4.0088    0.0000 Cl  0  0  0  0  0  0  0  0  0  0  0  0
    1.1528   -2.0252    0.0000 C   0  0  0  0  0  0  0  0  0  0  0  0
    5.7743   -2.0044    0.0000 C   0  0  0  0  0  0  0  0  0  0  0  0
    6.9271   -1.3501    0.0000 C   0  0  0  0  0  0  0  0  0  0  0  0
    8.0798   -2.0044    0.0000 C   0  0  0  0  0  0  0  0  0  0  0  0
    9.2326   -1.3293    0.0000 C   0  0  0  0  0  0  0  0  0  0  0  0
   10.3854   -1.9836    0.0000 O   0  0  0  0  0  0  0  0  0  0  0  0
    9.2326   -0.0000    0.0000 O   0  0  0  0  0  0  0  0  0  0  0  0
  1  2  2  0  0  0  0 
  1  3  1  0  0  0  0 
  1  4  1  0  0  0  0 
  2  5  1  0  0  0  0 
  3  6  2  0  0  0  0 
  3  7  1  0  0  0  0 
  5  8  1  0  0  0  0 
  5  9  2  0  0  0  0 
  6  9  1  0  0  0  0 
  7 10  1  0  0  0  0 
 10 11  1  0  0  0  0 
 12 11  1  0  0  0  0 
 13 12  1  0  0  0  0 
 13 14  2  0  0  0  0 
 13 15  1  0  0  0  0 
M  END
> <Name>
Butanoic acid, 4-(2,4-dichlorophenoxy)- (9CI)

> <Source>
DSSTox2DMolFile

> <Tox>
4.141

> <CAS>
94-82-6

$$$$

  CDK

 10 10  0  0  0  0  0  0  0  0999 V2000
    1.9929   -2.3040    0.0000 C   0  0  0  0  0  0  0  0  0  0  0  0
    0.6643   -2.3040    0.0000 C   0  0  0  0  0  0  0  0  0  0  0  0
    2.6571   -1.1490    0.0000 C   0  0  0  0  0  0  0  0  0  0  0  0
    2.6571   -3.4531    0.0000 C   0  0  0  0  0  0  0  0  0  0  0  0
    0.0000   -3.4531    0.0000 O   0  0  0  0  0  0  0  0  0  0  0  0
    1.9929   -0.0000    0.0000 O   0  0  0  0  0  0  0  0  0  0  0  0
    3.9917   -1.1490    0.0000 C   0  0  0  0  0  0  0  0  0  0  0  0
    3.9917   -3.4531    0.0000 C   0  0  0  0  0  0  0  0  0  0  0  0
    4.6560   -2.3040    0.0000 C   0  0  0  0  0  0  0  0  0  0  0  0
    5.9845   -2.3040    0.0000 O   0  0  0  0  0  0  0  0  0  0  0  0
  1  2  1  0  0  0  0 
  1  3  2  0  0  0  0 
  1  4  1  0  0  0  0 
  2  5  2  0  0  0  0 
  3  6  1  0  0  0  0 
  3  7  1  0  0  0  0 
  8  4  2  0  0  0  0 
  7  9  2  0  0  0  0 
  9  8  1  0  0  0  0 
  9 10  1  0  0  0  0 
M  END
> <Name>
Benzaldehyde, 2,4-dihydroxy-

> <Source>
DSSTox2DMolFile

> <Tox>
4.023

> <CAS>
95-01-2

$$$$

  CDK

  8  8  0  0  0  0  0  0  0  0999 V2000
    0.0000   -2.3027    0.0000 C   0  0  0  0  0  0  0  0  0  0  0  0
    1.3289   -2.3027    0.0000 C   0  0  0  0  0  0  0  0  0  0  0  0
    1.9954   -1.1533    0.0000 C   0  0  0  0  0  0  0  0  0  0  0  0
    1.9954   -3.4560    0.0000 C   0  0  0  0  0  0  0  0  0  0  0  0
    1.3289   -0.0000    0.0000 C   0  0  0  0  0  0  0  0  0  0  0  0
    3.3243   -1.1533    0.0000 C   0  0  0  0  0  0  0  0  0  0  0  0
    3.3243   -3.4560    0.0000 C   0  0  0  0  0  0  0  0  0  0  0  0
    3.9907   -2.3027    0.0000 C   0  0  0  0  0  0  0  0  0  0  0  0
  1  2  1  0  0  0  0 
  2  3  2  0  0  0  0 
  2  4  1  0  0  0  0 
  3  5  1  0  0  0  0 
  3  6  1  0  0  0  0 
  7  4  2  0  0  0  0 
  6  8  2  0  0  0  0 
  8  7  1  0  0  0  0 
M  END
> <Name>
Benzene, 1,2-dimethyl-

> <Source>
DSSTox2DMolFile

> <Tox>
3.811

> <CAS>
95-47-6

$$$$

  CDK

  8  8  0  0  0  0  0  0  0  0999 V2000
    0.0000   -2.3027    0.0000 O   0  0  0  0  0  0  0  0  0  0  0  0
    1.3289   -2.3027    0.0000 C   0  0  0  0  0  0  0  0  0  0  0  0
    1.9954   -1.1533    0.0000 C   0  0  0  0  0  0  0  0  0  0  0  0
    1.9954   -3.4560    0.0000 C   0  0  0  0  0  0  0  0  0  0  0  0
    1.3289   -0.0000    0.0000 C   0  0  0  0  0  0  0  0  0  0  0  0
    3.3243   -1.1533    0.0000 C   0  0  0  0  0  0  0  0  0  0  0  0
    3.3243   -3.4560    0.0000 C   0  0  0  0  0  0  0  0  0  0  0  0
    3.9907   -2.3027    0.0000 C   0  0  0  0  0  0  0  0  0  0  0  0
  1  2  1  0  0  0  0 
  2  3  2  0  0  0  0 
  2  4  1  0  0  0  0 
  3  5  1  0  0  0  0 
  3  6  1  0  0  0  0 
  7  4  2  0  0  0  0 
  6  8  2  0  0  0  0 
  8  7  1  0  0  0  0 
M  END
> <Name>
Phenol, 2-methyl-

> <Source>
DSSTox2DMolFile

> <Tox>
3.888

> <CAS>
95-48-7

$$$$

  CDK

  8  8  0  0  0  0  0  0  0  0999 V2000
    0.0000   -2.3027    0.0000 C   0  0  0  0  0  0  0  0  0  0  0  0
    1.3289   -2.3027    0.0000 C   0  0  0  0  0  0  0  0  0  0  0  0
    1.9954   -1.1533    0.0000 C   0  0  0  0  0  0  0  0  0  0  0  0
    1.9954   -3.4560    0.0000 C   0  0  0  0  0  0  0  0  0  0  0  0
    1.3289   -0.0000    0.0000 F   0  0  0  0  0  0  0  0  0  0  0  0
    3.3243   -1.1533    0.0000 C   0  0  0  0  0  0  0  0  0  0  0  0
    3.3243   -3.4560    0.0000 C   0  0  0  0  0  0  0  0  0  0  0  0
    3.9907   -2.3027    0.0000 C   0  0  0  0  0  0  0  0  0  0  0  0
  1  2  1  0  0  0  0 
  2  3  2  0  0  0  0 
  2  4  1  0  0  0  0 
  3  5  1  0  0  0  0 
  3  6  1  0  0  0  0 
  7  4  2  0  0  0  0 
  6  8  2  0  0  0  0 
  8  7  1  0  0  0  0 
M  END
> <Name>
Benzene, 1-fluoro-2-methyl-

> <Source>
DSSTox2DMolFile

> <Tox>
3.753

> <CAS>
95-52-3

$$$$

  CDK

  8  8  0  0  0  0  0  0  0  0999 V2000
    3.9907   -2.3027    0.0000 O   0  0  0  0  0  0  0  0  0  0  0  0
    2.6618   -2.3027    0.0000 C   0  0  0  0  0  0  0  0  0  0  0  0
    1.9954   -3.4560    0.0000 C   0  0  0  0  0  0  0  0  0  0  0  0
    1.9954   -1.1533    0.0000 C   0  0  0  0  0  0  0  0  0  0  0  0
    0.6665   -3.4560    0.0000 C   0  0  0  0  0  0  0  0  0  0  0  0
    0.6665   -1.1533    0.0000 C   0  0  0  0  0  0  0  0  0  0  0  0
    2.6618   -0.0000    0.0000 Cl  0  0  0  0  0  0  0  0  0  0  0  0
    0.0000   -2.3027    0.0000 C   0  0  0  0  0  0  0  0  0  0  0  0
  1  2  1  0  0  0  0 
  2  3  2  0  0  0  0 
  2  4  1  0  0  0  0 
  3  5  1  0  0  0  0 
  6  4  2  0  0  0  0 
  4  7  1  0  0  0  0 
  5  8  2  0  0  0  0 
  8  6  1  0  0  0  0 
M  END
> <Name>
Phenol, 2-chloro-

> <Source>
DSSTox2DMolFile

> <Tox>
4.019

> <CAS>
95-57-8

$$$$

  CDK

  9  9  0  0  0  0  0  0  0  0999 V2000
    0.0000   -2.6589    0.0000 C   0  0  0  0  0  0  0  0  0  0  0  0
    1.1520   -1.9953    0.0000 C   0  0  0  0  0  0  0  0  0  0  0  0
    1.1520   -0.6636    0.0000 C   0  0  0  0  0  0  0  0  0  0  0  0
    2.3041   -2.6589    0.0000 C   0  0  0  0  0  0  0  0  0  0  0  0
    2.3041   -0.0000    0.0000 C   0  0  0  0  0  0  0  0  0  0  0  0
    0.0000   -0.0000    0.0000 C   0  0  0  0  0  0  0  0  0  0  0  0
    3.4561   -1.9953    0.0000 C   0  0  0  0  0  0  0  0  0  0  0  0
    3.4561   -0.6636    0.0000 C   0  0  0  0  0  0  0  0  0  0  0  0
    4.6082   -2.6589    0.0000 C   0  0  0  0  0  0  0  0  0  0  0  0
  1  2  1  0  0  0  0 
  2  3  2  0  0  0  0 
  2  4  1  0  0  0  0 
  3  5  1  0  0  0  0 
  3  6  1  0  0  0  0 
  7  4  2  0  0  0  0 
  5  8  2  0  0  0  0 
  8  7  1  0  0  0  0 
  7  9  1  0  0  0  0 
M  END
> <Name>
Benzene, 1,2,4-trimethyl-

> <Source>
DSSTox2DMolFile

> <Tox>
4.192

> <CAS>
95-63-6

$$$$

  CDK

  9  9  0  0  0  0  0  0  0  0999 V2000
    2.3151   -1.9965    0.0000 C   0  0  0  0  0  0  0  0  0  0  0  0
    2.3151   -3.3240    0.0000 C   0  0  0  0  0  0  0  0  0  0  0  0
    1.1629   -1.3275    0.0000 C   0  0  0  0  0  0  0  0  0  0  0  0
    1.1629   -3.9825    0.0000 C   0  0  0  0  0  0  0  0  0  0  0  0
    3.4621   -3.9825    0.0000 C   0  0  0  0  0  0  0  0  0  0  0  0
    0.0000   -1.9965    0.0000 C   0  0  0  0  0  0  0  0  0  0  0  0
    1.1629   -0.0000    0.0000 O   0  0  0  0  0  0  0  0  0  0  0  0
    0.0000   -3.3240    0.0000 C   0  0  0  0  0  0  0  0  0  0  0  0
    1.1629   -5.3100    0.0000 C   0  0  0  0  0  0  0  0  0  0  0  0
  1  2  1  0  0  0  0 
  1  3  2  0  0  0  0 
  2  4  2  0  0  0  0 
  2  5  1  0  0  0  0 
  3  6  1  0  0  0  0 
  3  7  1  0  0  0  0 
  4  8  1  0  0  0  0 
  4  9  1  0  0  0  0 
  6  8  2  0  0  0  0 
M  END
> <Name>
Phenol, 3,4-dimethyl-

> <Source>
DSSTox2DMolFile

> <Tox>
3.941

> <CAS>
95-65-8

$$$$

  CDK

  9  9  0  0  0  0  0  0  0  0999 V2000
    4.6082   -2.6589    0.0000 C   0  0  0  0  0  0  0  0  0  0  0  0
    3.4561   -1.9953    0.0000 C   0  0  0  0  0  0  0  0  0  0  0  0
    2.3041   -2.6589    0.0000 C   0  0  0  0  0  0  0  0  0  0  0  0
    3.4561   -0.6636    0.0000 C   0  0  0  0  0  0  0  0  0  0  0  0
    1.1520   -1.9953    0.0000 C   0  0  0  0  0  0  0  0  0  0  0  0
    2.3041   -0.0000    0.0000 C   0  0  0  0  0  0  0  0  0  0  0  0
    0.0000   -2.6589    0.0000 Cl  0  0  0  0  0  0  0  0  0  0  0  0
    1.1520   -0.6636    0.0000 C   0  0  0  0  0  0  0  0  0  0  0  0
    0.0000   -0.0000    0.0000 Cl  0  0  0  0  0  0  0  0  0  0  0  0
  1  2  1  0  0  0  0 
  2  3  2  0  0  0  0 
  2  4  1  0  0  0  0 
  3  5  1  0  0  0  0 
  6  4  2  0  0  0  0 
  5  7  1  0  0  0  0 
  5  8  2  0  0  0  0 
  8  6  1  0  0  0  0 
  8  9  1  0  0  0  0 
M  END
> <Name>
Toluene, 3,4-dichloro- (8CI)

> <Source>
DSSTox2DMolFile

> <Tox>
4.743

> <CAS>
95-75-0

$$$$

  CDK

  9  9  0  0  0  0  0  0  0  0999 V2000
    4.6082   -2.6589    0.0000 N   0  0  0  0  0  0  0  0  0  0  0  0
    3.4561   -1.9953    0.0000 C   0  0  0  0  0  0  0  0  0  0  0  0
    2.3041   -2.6589    0.0000 C   0  0  0  0  0  0  0  0  0  0  0  0
    3.4561   -0.6636    0.0000 C   0  0  0  0  0  0  0  0  0  0  0  0
    1.1520   -1.9953    0.0000 C   0  0  0  0  0  0  0  0  0  0  0  0
    2.3041   -0.0000    0.0000 C   0  0  0  0  0  0  0  0  0  0  0  0
    0.0000   -2.6589    0.0000 Cl  0  0  0  0  0  0  0  0  0  0  0  0
    1.1520   -0.6636    0.0000 C   0  0  0  0  0  0  0  0  0  0  0  0
    0.0000   -0.0000    0.0000 Cl  0  0  0  0  0  0  0  0  0  0  0  0
  1  2  1  0  0  0  0 
  2  3  2  0  0  0  0 
  2  4  1  0  0  0  0 
  3  5  1  0  0  0  0 
  6  4  2  0  0  0  0 
  5  7  1  0  0  0  0 
  5  8  2  0  0  0  0 
  8  6  1  0  0  0  0 
  8  9  1  0  0  0  0 
M  END
> <Name>
Benzenamine, 3,4-dichloro-

> <Source>
DSSTox2DMolFile

> <Tox>
4.323

> <CAS>
95-76-1

$$$$

  CDK

  9  9  0  0  0  0  0  0  0  0999 V2000
    0.0000   -2.6589    0.0000 N   0  0  0  0  0  0  0  0  0  0  0  0
    1.1520   -1.9953    0.0000 C   0  0  0  0  0  0  0  0  0  0  0  0
    1.1520   -0.6636    0.0000 C   0  0  0  0  0  0  0  0  0  0  0  0
    2.3041   -2.6589    0.0000 C   0  0  0  0  0  0  0  0  0  0  0  0
    2.3041   -0.0000    0.0000 C   0  0  0  0  0  0  0  0  0  0  0  0
    0.0000   -0.0000    0.0000 C   0  0  0  0  0  0  0  0  0  0  0  0
    3.4561   -1.9953    0.0000 C   0  0  0  0  0  0  0  0  0  0  0  0
    3.4561   -0.6636    0.0000 C   0  0  0  0  0  0  0  0  0  0  0  0
    4.6082   -2.6589    0.0000 N   0  0  0  0  0  0  0  0  0  0  0  0
  1  2  1  0  0  0  0 
  2  3  2  0  0  0  0 
  2  4  1  0  0  0  0 
  3  5  1  0  0  0  0 
  3  6  1  0  0  0  0 
  7  4  2  0  0  0  0 
  5  8  2  0  0  0  0 
  8  7  1  0  0  0  0 
  7  9  1  0  0  0  0 
M  END
> <Name>
1,3-Benzenediamine, 4-methyl-

> <Source>
DSSTox2DMolFile

> <Tox>
1.935

> <CAS>
95-80-7

$$$$

  CDK

 10 10  0  0  0  0  0  0  0  0999 V2000
    1.3329   -0.0000    0.0000 Cl  0  0  0  0  0  0  0  0  0  0  0  0
    2.0100   -1.1516    0.0000 C   0  0  0  0  0  0  0  0  0  0  0  0
    3.3216   -1.1516    0.0000 C   0  0  0  0  0  0  0  0  0  0  0  0
    1.3329   -2.3086    0.0000 C   0  0  0  0  0  0  0  0  0  0  0  0
    3.9987   -2.3086    0.0000 C   0  0  0  0  0  0  0  0  0  0  0  0
    0.0000   -2.3086    0.0000 Cl  0  0  0  0  0  0  0  0  0  0  0  0
    2.0100   -3.4495    0.0000 C   0  0  0  0  0  0  0  0  0  0  0  0
    5.3316   -2.3086    0.0000 Cl  0  0  0  0  0  0  0  0  0  0  0  0
    3.3216   -3.4495    0.0000 C   0  0  0  0  0  0  0  0  0  0  0  0
    3.9987   -4.6065    0.0000 Cl  0  0  0  0  0  0  0  0  0  0  0  0
  1  2  1  0  0  0  0 
  3  2  1  0  0  0  0 
  2  4  2  0  0  0  0 
  5  3  2  0  0  0  0 
  6  4  1  0  0  0  0 
  7  4  1  0  0  0  0 
  8  5  1  0  0  0  0 
  5  9  1  0  0  0  0 
  9  7  2  0  0  0  0 
 10  9  1  0  0  0  0 
M  END
> <Name>
Benzene, 1,2,4,5-tetrachloro-

> <Source>
DSSTox2DMolFile

> <Tox>
5.829

> <CAS>
95-94-3

$$$$

  CDK

 10 10  0  0  0  0  0  0  0  0999 V2000
    3.4527   -3.3252    0.0000 C   0  0  0  0  0  0  0  0  0  0  0  0
    2.3000   -3.9945    0.0000 C   0  0  0  0  0  0  0  0  0  0  0  0
    3.4527   -1.9866    0.0000 C   0  0  0  0  0  0  0  0  0  0  0  0
    1.1527   -3.3252    0.0000 C   0  0  0  0  0  0  0  0  0  0  0  0
    2.3000   -5.3118    0.0000 Cl  0  0  0  0  0  0  0  0  0  0  0  0
    2.3000   -1.3173    0.0000 C   0  0  0  0  0  0  0  0  0  0  0  0
    4.6054   -1.3173    0.0000 Cl  0  0  0  0  0  0  0  0  0  0  0  0
    1.1527   -1.9866    0.0000 C   0  0  0  0  0  0  0  0  0  0  0  0
    0.0000   -3.9945    0.0000 Cl  0  0  0  0  0  0  0  0  0  0  0  0
    2.3000   -0.0000    0.0000 O   0  0  0  0  0  0  0  0  0  0  0  0
  1  2  2  0  0  0  0 
  1  3  1  0  0  0  0 
  2  4  1  0  0  0  0 
  2  5  1  0  0  0  0 
  3  6  2  0  0  0  0 
  3  7  1  0  0  0  0 
  8  4  2  0  0  0  0 
  4  9  1  0  0  0  0 
  8  6  1  0  0  0  0 
  6 10  1  0  0  0  0 
M  END
> <Name>
Phenol, 2,4,5-trichloro-

> <Source>
DSSTox2DMolFile

> <Tox>
5.266

> <CAS>
95-95-4

$$$$

  CDK

  9  8  0  0  0  0  0  0  0  0999 V2000
    1.1530   -0.0000    0.0000 C   0  0  0  0  0  0  0  0  0  0  0  0
    1.1530   -1.3257    0.0000 C   0  0  0  0  0  0  0  0  0  0  0  0
    0.0000   -1.9954    0.0000 C   0  0  0  0  0  0  0  0  0  0  0  0
    2.2992   -1.9954    0.0000 C   0  0  0  0  0  0  0  0  0  0  0  0
    2.2992   -3.3210    0.0000 O   0  0  0  0  0  0  0  0  0  0  0  0
    3.4522   -1.3257    0.0000 O   0  0  0  0  0  0  0  0  0  0  0  0
    4.6053   -1.9954    0.0000 C   0  0  0  0  0  0  0  0  0  0  0  0
    5.7514   -1.3257    0.0000 C   0  0  0  0  0  0  0  0  0  0  0  0
    6.9045   -1.9954    0.0000 C   0  0  0  0  0  0  0  0  0  0  0  0
  1  2  2  0  0  0  0 
  2  3  1  0  0  0  0 
  2  4  1  0  0  0  0 
  4  5  2  0  0  0  0 
  4  6  1  0  0  0  0 
  6  7  1  0  0  0  0 
  7  8  1  0  0  0  0 
  8  9  2  0  0  0  0 
M  END
> <Name>
2-Propenoic acid, 2-methyl-, 2-propenyl ester

> <Source>
DSSTox2DMolFile

> <Tox>
5.105

> <CAS>
96-05-9

$$$$

  CDK

  9 10  0  0  0  0  0  0  0  0999 V2000
    0.0000   -0.4886    0.0000 C   0  0  0  0  0  0  0  0  0  0  0  0
    1.1521   -1.1521    0.0000 C   0  0  0  0  0  0  0  0  0  0  0  0
    0.0000   -1.8155    0.0000 O   0  0  0  0  0  0  0  0  0  0  0  0
    2.4842   -1.1521    0.0000 C   0  0  0  0  0  0  0  0  0  0  0  0
    3.1476   -0.0000    0.0000 C   0  0  0  0  0  0  0  0  0  0  0  0
    3.1476   -2.3042    0.0000 C   0  0  0  0  0  0  0  0  0  0  0  0
    4.4797   -0.0000    0.0000 C   0  0  0  0  0  0  0  0  0  0  0  0
    4.4797   -2.3042    0.0000 C   0  0  0  0  0  0  0  0  0  0  0  0
    5.1432   -1.1521    0.0000 C   0  0  0  0  0  0  0  0  0  0  0  0
  1  2  1  0  0  0  0 
  1  3  1  0  0  0  0 
  2  4  1  0  0  0  0 
  2  3  1  0  0  0  0 
  4  5  2  0  0  0  0 
  4  6  1  0  0  0  0 
  5  7  1  0  0  0  0 
  8  6  2  0  0  0  0 
  7  9  2  0  0  0  0 
  9  8  1  0  0  0  0 
M  END
> <Name>
Benzene, (epoxyethyl)-

> <Source>
DSSTox2DMolFile

> <Tox>
3.995

> <CAS>
96-09-3

$$$$

  CDK

  6  5  0  0  0  0  0  0  0  0999 V2000
    3.3247   -0.0000    0.0000 Br  0  0  0  0  0  0  0  0  0  0  0  0
    1.9948   -0.0000    0.0000 C   0  0  0  0  0  0  0  0  0  0  0  0
    1.3299   -1.1537    0.0000 C   0  0  0  0  0  0  0  0  0  0  0  0
    0.0000   -1.1537    0.0000 Br  0  0  0  0  0  0  0  0  0  0  0  0
    1.9948   -2.3040    0.0000 C   0  0  0  0  0  0  0  0  0  0  0  0
    3.3247   -2.3040    0.0000 O   0  0  0  0  0  0  0  0  0  0  0  0
  1  2  1  0  0  0  0 
  2  3  1  0  0  0  0 
  3  4  1  0  0  0  0 
  3  5  1  0  0  0  0 
  5  6  1  0  0  0  0 
M  END
> <Name>
1-Propanol, 2,3-dibromo-

> <Source>
DSSTox2DMolFile

> <Tox>
3.487

> <CAS>
96-13-9

$$$$

  CDK

  6  5  0  0  0  0  0  0  0  0999 V2000
    2.6616   -0.0000    0.0000 C   0  0  0  0  0  0  0  0  0  0  0  0
    1.9952   -1.1492    0.0000 C   0  0  0  0  0  0  0  0  0  0  0  0
    2.6616   -2.3025    0.0000 C   0  0  0  0  0  0  0  0  0  0  0  0
    0.6664   -1.1492    0.0000 C   0  0  0  0  0  0  0  0  0  0  0  0
    3.9905   -2.3025    0.0000 O   0  0  0  0  0  0  0  0  0  0  0  0
    0.0000   -2.3025    0.0000 C   0  0  0  0  0  0  0  0  0  0  0  0
  1  2  1  0  0  0  0 
  2  3  1  0  0  0  0 
  2  4  1  0  0  0  0 
  3  5  2  0  0  0  0 
  4  6  1  0  0  0  0 
M  END
> <Name>
Butyraldehyde, 2-methyl-

> <Source>
DSSTox2DMolFile

> <Tox>
3.936

> <CAS>
96-17-3

$$$$

  CDK

  6  5  0  0  0  0  0  0  0  0999 V2000
    2.6616   -0.0000    0.0000 Cl  0  0  0  0  0  0  0  0  0  0  0  0
    1.9952   -1.1492    0.0000 C   0  0  0  0  0  0  0  0  0  0  0  0
    2.6616   -2.3025    0.0000 C   0  0  0  0  0  0  0  0  0  0  0  0
    0.6664   -1.1492    0.0000 C   0  0  0  0  0  0  0  0  0  0  0  0
    3.9905   -2.3025    0.0000 Cl  0  0  0  0  0  0  0  0  0  0  0  0
    0.0000   -2.3025    0.0000 Cl  0  0  0  0  0  0  0  0  0  0  0  0
  1  2  1  0  0  0  0 
  2  3  1  0  0  0  0 
  2  4  1  0  0  0  0 
  3  5  1  0  0  0  0 
  4  6  1  0  0  0  0 
M  END
> <Name>
Propane, 1,2,3-trichloro-

> <Source>
DSSTox2DMolFile

> <Tox>
3.408

> <CAS>
96-18-4

$$$$

  CDK

  6  5  0  0  0  0  0  0  0  0999 V2000
    3.9905   -2.3025    0.0000 C   0  0  0  0  0  0  0  0  0  0  0  0
    3.3240   -1.1492    0.0000 C   0  0  0  0  0  0  0  0  0  0  0  0
    1.9952   -1.1492    0.0000 C   0  0  0  0  0  0  0  0  0  0  0  0
    1.3288   -0.0000    0.0000 C   0  0  0  0  0  0  0  0  0  0  0  0
    1.3288   -2.3025    0.0000 N   0  0  0  0  0  0  0  0  0  0  0  0
    0.0000   -2.3025    0.0000 O   0  0  0  0  0  0  0  0  0  0  0  0
  1  2  1  0  0  0  0 
  2  3  1  0  0  0  0 
  3  4  1  0  0  0  0 
  3  5  2  0  0  0  0 
  5  6  1  0  0  0  0 
M  END
> <Name>
2-Butanone, oxime

> <Source>
DSSTox2DMolFile

> <Tox>
2.014

> <CAS>
96-29-7

$$$$

  CDK

 10  9  0  0  0  0  0  0  0  0999 V2000
    5.7564   -1.3297    0.0000 O   0  0  0  0  0  0  0  0  0  0  0  0
    4.6051   -1.9975    0.0000 C   0  0  0  0  0  0  0  0  0  0  0  0
    3.4538   -1.3297    0.0000 C   0  0  0  0  0  0  0  0  0  0  0  0
    2.3025   -1.9975    0.0000 N   0  0  0  0  0  0  0  0  0  0  0  0
    2.3025   -3.3272    0.0000 C   0  0  0  0  0  0  0  0  0  0  0  0
    1.1513   -1.3297    0.0000 C   0  0  0  0  0  0  0  0  0  0  0  0
    1.1513   -3.9892    0.0000 C   0  0  0  0  0  0  0  0  0  0  0  0
    3.4538   -3.9892    0.0000 C   0  0  0  0  0  0  0  0  0  0  0  0
    0.0000   -1.9975    0.0000 C   0  0  0  0  0  0  0  0  0  0  0  0
    1.1513   -0.0000    0.0000 C   0  0  0  0  0  0  0  0  0  0  0  0
  1  2  1  0  0  0  0 
  2  3  1  0  0  0  0 
  3  4  1  0  0  0  0 
  4  5  1  0  0  0  0 
  4  6  1  0  0  0  0 
  5  7  1  0  0  0  0 
  5  8  1  0  0  0  0 
  6  9  1  0  0  0  0 
  6 10  1  0  0  0  0 
M  END
> <Name>
Ethanol, 2-(bis(1-methylethyl)amino)-

> <Source>
DSSTox2DMolFile

> <Tox>
2.859

> <CAS>
96-80-0

$$$$

  CDK

 17 18  0  0  0  0  0  0  0  0999 V2000
    4.6095   -6.6481    0.0000 O   0  0  0  0  0  0  0  0  0  0  0  0
    3.4554   -5.9847    0.0000 C   0  0  0  0  0  0  0  0  0  0  0  0
    2.3013   -6.6481    0.0000 C   0  0  0  0  0  0  0  0  0  0  0  0
    3.4554   -4.6509    0.0000 C   0  0  0  0  0  0  0  0  0  0  0  0
    1.1541   -5.9847    0.0000 C   0  0  0  0  0  0  0  0  0  0  0  0
    2.3013   -3.9875    0.0000 C   0  0  0  0  0  0  0  0  0  0  0  0
    4.6095   -3.9875    0.0000 C   0  0  0  0  0  0  0  0  0  0  0  0
    1.1541   -4.6509    0.0000 C   0  0  0  0  0  0  0  0  0  0  0  0
    4.6095   -2.6606    0.0000 C   0  0  0  0  0  0  0  0  0  0  0  0
    0.0000   -3.9875    0.0000 Cl  0  0  0  0  0  0  0  0  0  0  0  0
    3.4554   -1.9903    0.0000 C   0  0  0  0  0  0  0  0  0  0  0  0
    5.7566   -1.9903    0.0000 C   0  0  0  0  0  0  0  0  0  0  0  0
    3.4554   -0.6634    0.0000 C   0  0  0  0  0  0  0  0  0  0  0  0
    5.7566   -0.6634    0.0000 C   0  0  0  0  0  0  0  0  0  0  0  0
    6.9107   -2.6606    0.0000 O   0  0  0  0  0  0  0  0  0  0  0  0
    2.3013   -0.0000    0.0000 Cl  0  0  0  0  0  0  0  0  0  0  0  0
    4.6095   -0.0000    0.0000 C   0  0  0  0  0  0  0  0  0  0  0  0
  1  2  1  0  0  0  0 
  2  3  2  0  0  0  0 
  2  4  1  0  0  0  0 
  3  5  1  0  0  0  0 
  6  4  2  0  0  0  0 
  4  7  1  0  0  0  0 
  5  8  2  0  0  0  0 
  8  6  1  0  0  0  0 
  7  9  1  0  0  0  0 
  8 10  1  0  0  0  0 
  9 11  2  0  0  0  0 
  9 12  1  0  0  0  0 
 11 13  1  0  0  0  0 
 14 12  2  0  0  0  0 
 12 15  1  0  0  0  0 
 13 16  1  0  0  0  0 
 13 17  2  0  0  0  0 
 17 14  1  0  0  0  0 
M  END
> <Name>
Phenol, 2,2'-methylenebis(4-chloro-

> <Source>
DSSTox2DMolFile

> <Tox>
5.939

> <CAS>
97-23-4

$$$$

  CDK

 12 12  0  0  0  0  0  0  0  0999 V2000
    6.9143   -0.0000    0.0000 O   0  0  0  0  0  0  0  0  0  0  0  0
    5.7605   -0.6696    0.0000 C   0  0  0  0  0  0  0  0  0  0  0  0
    5.7605   -2.0009    0.0000 C   0  0  0  0  0  0  0  0  0  0  0  0
    4.6068   -0.0000    0.0000 C   0  0  0  0  0  0  0  0  0  0  0  0
    4.6068   -2.6624    0.0000 C   0  0  0  0  0  0  0  0  0  0  0  0
    6.9143   -2.6624    0.0000 O   0  0  0  0  0  0  0  0  0  0  0  0
    3.4612   -0.6696    0.0000 C   0  0  0  0  0  0  0  0  0  0  0  0
    3.4612   -2.0009    0.0000 C   0  0  0  0  0  0  0  0  0  0  0  0
    8.0680   -2.0009    0.0000 C   0  0  0  0  0  0  0  0  0  0  0  0
    2.3074   -2.6624    0.0000 C   0  0  0  0  0  0  0  0  0  0  0  0
    1.1537   -2.0009    0.0000 C   0  0  0  0  0  0  0  0  0  0  0  0
    0.0000   -2.6624    0.0000 C   0  0  0  0  0  0  0  0  0  0  0  0
  1  2  1  0  0  0  0 
  2  3  2  0  0  0  0 
  2  4  1  0  0  0  0 
  3  5  1  0  0  0  0 
  3  6  1  0  0  0  0 
  7  4  2  0  0  0  0 
  5  8  2  0  0  0  0 
  6  9  1  0  0  0  0 
  8  7  1  0  0  0  0 
  8 10  1  0  0  0  0 
 10 11  1  0  0  0  0 
 11 12  2  0  0  0  0 
M  END
> <Name>
Phenol, 2-methoxy-4-(2-propenyl)-

> <Source>
DSSTox2DMolFile

> <Tox>
3.835

> <CAS>
97-53-0

$$$$

  CDK

  7  7  0  0  0  0  0  0  0  0999 V2000
    0.0000   -1.5998    0.0000 O   0  0  0  0  0  0  0  0  0  0  0  0
    1.1503   -2.2653    0.0000 C   0  0  0  0  0  0  0  0  0  0  0  0
    2.3050   -1.5998    0.0000 C   0  0  0  0  0  0  0  0  0  0  0  0
    2.4416   -0.2777    0.0000 C   0  0  0  0  0  0  0  0  0  0  0  0
    3.5169   -2.1419    0.0000 O   0  0  0  0  0  0  0  0  0  0  0  0
    3.7417   -0.0000    0.0000 C   0  0  0  0  0  0  0  0  0  0  0  0
    4.4072   -1.1547    0.0000 C   0  0  0  0  0  0  0  0  0  0  0  0
  1  2  2  0  0  0  0 
  2  3  1  0  0  0  0 
  3  4  2  0  0  0  0 
  3  5  1  0  0  0  0 
  4  6  1  0  0  0  0 
  7  5  1  0  0  0  0 
  6  7  2  0  0  0  0 
M  END
> <Name>
2-Furancarboxaldehyde

> <Source>
DSSTox2DMolFile

> <Tox>
3.569

> <CAS>
98-01-1

$$$$

  CDK

 11 11  0  0  0  0  0  0  0  0999 V2000
    5.3217   -1.3304    0.0000 C   0  0  0  0  0  0  0  0  0  0  0  0
    3.9913   -1.3304    0.0000 C   0  0  0  0  0  0  0  0  0  0  0  0
    5.3217   -0.0000    0.0000 C   0  0  0  0  0  0  0  0  0  0  0  0
    6.6521   -1.3304    0.0000 C   0  0  0  0  0  0  0  0  0  0  0  0
    5.3217   -2.6609    0.0000 C   0  0  0  0  0  0  0  0  0  0  0  0
    3.3261   -2.4813    0.0000 C   0  0  0  0  0  0  0  0  0  0  0  0
    3.3261   -0.1796    0.0000 C   0  0  0  0  0  0  0  0  0  0  0  0
    1.9956   -2.4813    0.0000 C   0  0  0  0  0  0  0  0  0  0  0  0
    1.9956   -0.1796    0.0000 C   0  0  0  0  0  0  0  0  0  0  0  0
    1.3304   -1.3304    0.0000 C   0  0  0  0  0  0  0  0  0  0  0  0
    0.0000   -1.3304    0.0000 O   0  0  0  0  0  0  0  0  0  0  0  0
  1  2  1  0  0  0  0 
  1  3  1  0  0  0  0 
  1  4  1  0  0  0  0 
  1  5  1  0  0  0  0 
  2  6  2  0  0  0  0 
  2  7  1  0  0  0  0 
  6  8  1  0  0  0  0 
  9  7  2  0  0  0  0 
  8 10  2  0  0  0  0 
 10  9  1  0  0  0  0 
 10 11  1  0  0  0  0 
M  END
> <Name>
Phenol, 4-(1,1-dimethylethyl)-

> <Source>
DSSTox2DMolFile

> <Tox>
4.466

> <CAS>
98-54-4

$$$$

  CDK

  9  9  0  0  0  0  0  0  0  0999 V2000
    2.6574   -0.0000    0.0000 C   0  0  0  0  0  0  0  0  0  0  0  0
    3.9884   -0.0000    0.0000 C   0  0  0  0  0  0  0  0  0  0  0  0
    1.9965   -1.1542    0.0000 C   0  0  0  0  0  0  0  0  0  0  0  0
    4.6539   -1.1542    0.0000 C   0  0  0  0  0  0  0  0  0  0  0  0
    2.6574   -2.3037    0.0000 C   0  0  0  0  0  0  0  0  0  0  0  0
    0.6655   -1.1542    0.0000 C   0  0  0  0  0  0  0  0  0  0  0  0
    3.9884   -2.3037    0.0000 C   0  0  0  0  0  0  0  0  0  0  0  0
    0.0000   -2.3037    0.0000 O   0  0  0  0  0  0  0  0  0  0  0  0
    0.0000   -0.0000    0.0000 C   0  0  0  0  0  0  0  0  0  0  0  0
  1  2  2  0  0  0  0 
  1  3  1  0  0  0  0 
  2  4  1  0  0  0  0 
  5  3  2  0  0  0  0 
  3  6  1  0  0  0  0 
  4  7  2  0  0  0  0 
  7  5  1  0  0  0  0 
  6  8  2  0  0  0  0 
  6  9  1  0  0  0  0 
M  END
> <Name>
Ethanone, 1-phenyl-

> <Source>
DSSTox2DMolFile

> <Tox>
2.870

> <CAS>
98-86-2

$$$$

  CDK

  9  9  0  0  0  0  0  0  0  0999 V2000
    4.6727   -0.0000    0.0000 Cl  0  0  0  0  0  0  0  0  0  0  0  0
    3.9998   -1.1401    0.0000 C   0  0  0  0  0  0  0  0  0  0  0  0
    4.6727   -2.2943    0.0000 O   0  0  0  0  0  0  0  0  0  0  0  0
    2.6634   -1.1401    0.0000 C   0  0  0  0  0  0  0  0  0  0  0  0
    2.0093   -2.2943    0.0000 C   0  0  0  0  0  0  0  0  0  0  0  0
    2.0093   -0.0000    0.0000 C   0  0  0  0  0  0  0  0  0  0  0  0
    0.6729   -2.2943    0.0000 C   0  0  0  0  0  0  0  0  0  0  0  0
    0.6729   -0.0000    0.0000 C   0  0  0  0  0  0  0  0  0  0  0  0
    0.0000   -1.1401    0.0000 C   0  0  0  0  0  0  0  0  0  0  0  0
  1  2  1  0  0  0  0 
  2  3  2  0  0  0  0 
  2  4  1  0  0  0  0 
  4  5  2  0  0  0  0 
  4  6  1  0  0  0  0 
  5  7  1  0  0  0  0 
  6  8  2  0  0  0  0 
  7  9  2  0  0  0  0 
  8  9  1  0  0  0  0 
M  END
> <Name>
Benzoyl chloride

> <Source>
DSSTox2DMolFile

> <Tox>
3.608

> <CAS>
98-88-4

$$$$

  CDK

  9  9  0  0  0  0  0  0  0  0999 V2000
    0.0000   -2.3037    0.0000 O   0  0  0  0  0  0  0  0  0  0  0  0
    0.6655   -1.1542    0.0000 N   0  0  0  0  0  0  0  0  0  0  0  0
    1.9965   -1.1542    0.0000 C   0  0  0  0  0  0  0  0  0  0  0  0
    0.0000   -0.0000    0.0000 O   0  0  0  0  0  0  0  0  0  0  0  0
    2.6574   -0.0000    0.0000 C   0  0  0  0  0  0  0  0  0  0  0  0
    2.6574   -2.3037    0.0000 C   0  0  0  0  0  0  0  0  0  0  0  0
    3.9884   -0.0000    0.0000 C   0  0  0  0  0  0  0  0  0  0  0  0
    3.9884   -2.3037    0.0000 C   0  0  0  0  0  0  0  0  0  0  0  0
    4.6539   -1.1542    0.0000 C   0  0  0  0  0  0  0  0  0  0  0  0
  1  2  2  0  0  0  0 
  2  3  1  0  0  0  0 
  2  4  1  0  0  0  0 
  3  5  2  0  0  0  0 
  3  6  1  0  0  0  0 
  5  7  1  0  0  0  0 
  8  6  2  0  0  0  0 
  7  9  2  0  0  0  0 
  9  8  1  0  0  0  0 
M  CHG  1   2   1
M  CHG  1   4  -1
M  END
> <Name>
Benzene, nitro-

> <Source>
DSSTox2DMolFile

> <Tox>
3.018

> <CAS>
98-95-3

$$$$

  CDK

 10 10  0  0  0  0  0  0  0  0999 V2000
    0.0000   -0.0000    0.0000 C   0  0  0  0  0  0  0  0  0  0  0  0
    0.6656   -1.1497    0.0000 C   0  0  0  0  0  0  0  0  0  0  0  0
    1.9968   -1.1497    0.0000 C   0  0  0  0  0  0  0  0  0  0  0  0
    0.0000   -2.3040    0.0000 C   0  0  0  0  0  0  0  0  0  0  0  0
    2.6577   -2.3040    0.0000 C   0  0  0  0  0  0  0  0  0  0  0  0
    0.6656   -3.4536    0.0000 C   0  0  0  0  0  0  0  0  0  0  0  0
    3.9889   -2.3040    0.0000 N   0  0  0  0  0  0  0  0  0  0  0  0
    1.9968   -3.4536    0.0000 C   0  0  0  0  0  0  0  0  0  0  0  0
    4.6545   -3.4536    0.0000 O   0  0  0  0  0  0  0  0  0  0  0  0
    4.6545   -1.1497    0.0000 O   0  0  0  0  0  0  0  0  0  0  0  0
  1  2  1  0  0  0  0 
  2  3  2  0  0  0  0 
  2  4  1  0  0  0  0 
  3  5  1  0  0  0  0 
  6  4  2  0  0  0  0 
  5  7  1  0  0  0  0 
  5  8  2  0  0  0  0 
  8  6  1  0  0  0  0 
  7  9  2  0  0  0  0 
  7 10  1  0  0  0  0 
M  CHG  1   7   1
M  CHG  1  10  -1
M  END
> <Name>
Benzene, 1-methyl-3-nitro-

> <Source>
DSSTox2DMolFile

> <Tox>
3.643

> <CAS>
99-08-1

$$$$

  CDK

 15 15  0  0  0  0  0  0  0  0999 V2000
    3.4662   -0.6724    0.0000 N   0  0  0  0  0  0  0  0  0  0  0  0
    3.4662   -1.9965    0.0000 C   0  0  0  0  0  0  0  0  0  0  0  0
    4.6378   -0.0277    0.0000 O   0  0  0  0  0  0  0  0  0  0  0  0
    2.3501   -0.0000    0.0000 O   0  0  0  0  0  0  0  0  0  0  0  0
    2.3016   -2.6620    0.0000 C   0  0  0  0  0  0  0  0  0  0  0  0
    4.6100   -2.6620    0.0000 C   0  0  0  0  0  0  0  0  0  0  0  0
    2.3085   -3.9861    0.0000 C   0  0  0  0  0  0  0  0  0  0  0  0
    4.6100   -3.9861    0.0000 C   0  0  0  0  0  0  0  0  0  0  0  0
    1.1438   -4.6586    0.0000 N   0  0  0  0  0  0  0  0  0  0  0  0
    3.4662   -4.6516    0.0000 C   0  0  0  0  0  0  0  0  0  0  0  0
    5.7747   -4.6655    0.0000 N   0  0  0  0  0  0  0  0  0  0  0  0
    0.0000   -4.0000    0.0000 O   0  0  0  0  0  0  0  0  0  0  0  0
    1.1438   -5.9965    0.0000 O   0  0  0  0  0  0  0  0  0  0  0  0
    5.7678   -5.9965    0.0000 O   0  0  0  0  0  0  0  0  0  0  0  0
    6.9324   -4.0069    0.0000 O   0  0  0  0  0  0  0  0  0  0  0  0
  1  2  1  0  0  0  0 
  1  3  1  0  0  0  0 
  1  4  2  0  0  0  0 
  2  5  2  0  0  0  0 
  2  6  1  0  0  0  0 
  7  5  1  0  0  0  0 
  8  6  2  0  0  0  0 
  9  7  1  0  0  0  0 
  7 10  2  0  0  0  0 
 11  8  1  0  0  0  0 
  8 10  1  0  0  0  0 
  9 12  1  0  0  0  0 
  9 13  2  0  0  0  0 
 11 14  1  0  0  0  0 
 11 15  2  0  0  0  0 
M  CHG  1   1   1
M  CHG  1   3  -1
M  CHG  1   9   1
M  CHG  1  11   1
M  CHG  1  12  -1
M  CHG  1  14  -1
M  END
> <Name>
Benzene, 1,3,5-trinitro-

> <Source>
DSSTox2DMolFile

> <Tox>
5.316

> <CAS>
99-35-4

$$$$

  CDK

 11 11  0  0  0  0  0  0  0  0999 V2000
    5.3194   -2.3037    0.0000 N   0  0  0  0  0  0  0  0  0  0  0  0
    5.9835   -1.1488    0.0000 O   0  0  0  0  0  0  0  0  0  0  0  0
    5.9835   -3.4525    0.0000 O   0  0  0  0  0  0  0  0  0  0  0  0
    3.9910   -2.3037    0.0000 C   0  0  0  0  0  0  0  0  0  0  0  0
    3.3269   -3.4525    0.0000 C   0  0  0  0  0  0  0  0  0  0  0  0
    3.3269   -1.1488    0.0000 C   0  0  0  0  0  0  0  0  0  0  0  0
    1.9925   -3.4525    0.0000 C   0  0  0  0  0  0  0  0  0  0  0  0
    1.9925   -1.1488    0.0000 C   0  0  0  0  0  0  0  0  0  0  0  0
    1.3283   -2.3037    0.0000 C   0  0  0  0  0  0  0  0  0  0  0  0
    1.3283   -0.0000    0.0000 C   0  0  0  0  0  0  0  0  0  0  0  0
    0.0000   -2.3037    0.0000 N   0  0  0  0  0  0  0  0  0  0  0  0
  1  2  2  0  0  0  0 
  1  3  1  0  0  0  0 
  1  4  1  0  0  0  0 
  4  5  2  0  0  0  0 
  4  6  1  0  0  0  0 
  5  7  1  0  0  0  0 
  8  6  2  0  0  0  0 
  7  9  2  0  0  0  0 
  9  8  1  0  0  0  0 
  8 10  1  0  0  0  0 
  9 11  1  0  0  0  0 
M  CHG  1   1   1
M  CHG  1   3  -1
M  END
> <Name>
Benzenamine, 2-methyl-4-nitro-

> <Source>
DSSTox2DMolFile

> <Tox>
3.244

> <CAS>
99-52-5

$$$$

  CDK

 11 11  0  0  0  0  0  0  0  0999 V2000
    2.6447   -1.0919    0.0000 C   0  0  0  0  0  0  0  0  0  0  0  0
    1.4807   -0.1642    0.0000 C   0  0  0  0  0  0  0  0  0  0  0  0
    3.7930   -0.7138    0.0000 O   0  0  0  0  0  0  0  0  0  0  0  0
    0.1955   -0.7052    0.0000 C   0  0  0  0  0  0  0  0  0  0  0  0
    1.6549    1.2210    0.0000 C   0  0  0  0  0  0  0  0  0  0  0  0
   -0.9183    0.1407    0.0000 C   0  0  0  0  0  0  0  0  0  0  0  0
    0.5455    2.0602    0.0000 C   0  0  0  0  0  0  0  0  0  0  0  0
   -0.7383    1.5303    0.0000 C   0  0  0  0  0  0  0  0  0  0  0  0
   -2.3005   -0.4385    0.0000 N   0  0  0  0  0  0  0  0  0  0  0  0
   -3.2591    0.3072    0.0000 O   0  0  0  0  0  0  0  0  0  0  0  0
   -2.4383   -1.6456    0.0000 O   0  0  0  0  0  0  0  0  0  0  0  0
  1  2  1  0  0  0  0 
  1  3  2  0  0  0  0 
  2  4  1  0  0  0  0 
  2  5  2  0  0  0  0 
  4  6  2  0  0  0  0 
  7  5  1  0  0  0  0 
  6  8  1  0  0  0  0 
  6  9  1  0  0  0  0 
  8  7  2  0  0  0  0 
  9 10  2  0  0  0  0 
  9 11  1  0  0  0  0 
M  CHG  1   9   1
M  CHG  1  11  -1
M  END
> <Name>
Benzaldehyde, 3-nitro-

> <Source>
DougDB3DMolFile

> <Tox>
4.416

> <CAS>
99-61-6

$$$$

  CDK

 12 12  0  0  0  0  0  0  0  0999 V2000
    3.9905   -2.3033    0.0000 C   0  0  0  0  0  0  0  0  0  0  0  0
    4.6546   -3.4580    0.0000 C   0  0  0  0  0  0  0  0  0  0  0  0
    2.6563   -2.3033    0.0000 C   0  0  0  0  0  0  0  0  0  0  0  0
    4.6546   -1.1547    0.0000 N   0  0  0  0  0  0  0  0  0  0  0  0
    3.9905   -4.6067    0.0000 C   0  0  0  0  0  0  0  0  0  0  0  0
    1.9922   -3.4580    0.0000 C   0  0  0  0  0  0  0  0  0  0  0  0
    3.9905   -0.0000    0.0000 O   0  0  0  0  0  0  0  0  0  0  0  0
    5.9827   -1.1547    0.0000 O   0  0  0  0  0  0  0  0  0  0  0  0
    2.6563   -4.6067    0.0000 C   0  0  0  0  0  0  0  0  0  0  0  0
    0.6641   -3.4580    0.0000 N   0  0  0  0  0  0  0  0  0  0  0  0
    0.0000   -4.6067    0.0000 O   0  0  0  0  0  0  0  0  0  0  0  0
    0.0000   -2.3033    0.0000 O   0  0  0  0  0  0  0  0  0  0  0  0
  1  2  2  0  0  0  0 
  1  3  1  0  0  0  0 
  1  4  1  0  0  0  0 
  2  5  1  0  0  0  0 
  6  3  2  0  0  0  0 
  4  7  1  0  0  0  0 
  4  8  2  0  0  0  0 
  5  9  2  0  0  0  0 
  9  6  1  0  0  0  0 
  6 10  1  0  0  0  0 
 10 11  1  0  0  0  0 
 10 12  2  0  0  0  0 
M  CHG  1   4   1
M  CHG  1   7  -1
M  CHG  1  10   1
M  CHG  1  11  -1
M  END
> <Name>
Benzene, 1,3-dinitro-

> <Source>
DSSTox2DMolFile

> <Tox>
4.122

> <CAS>
99-65-0

$$$$

  CDK

 10 10  0  0  0  0  0  0  0  0999 V2000
    0.0000   -0.0000    0.0000 C   0  0  0  0  0  0  0  0  0  0  0  0
    0.6640   -1.1546    0.0000 N   0  0  0  0  0  0  0  0  0  0  0  0
    0.0000   -2.3031    0.0000 C   0  0  0  0  0  0  0  0  0  0  0  0
    1.9921   -1.1546    0.0000 C   0  0  0  0  0  0  0  0  0  0  0  0
    2.6561   -0.0000    0.0000 C   0  0  0  0  0  0  0  0  0  0  0  0
    2.6561   -2.3031    0.0000 C   0  0  0  0  0  0  0  0  0  0  0  0
    3.9901   -0.0000    0.0000 C   0  0  0  0  0  0  0  0  0  0  0  0
    3.9901   -2.3031    0.0000 C   0  0  0  0  0  0  0  0  0  0  0  0
    4.6542   -1.1546    0.0000 C   0  0  0  0  0  0  0  0  0  0  0  0
    5.9822   -1.1546    0.0000 C   0  0  0  0  0  0  0  0  0  0  0  0
  1  2  1  0  0  0  0 
  2  3  1  0  0  0  0 
  2  4  1  0  0  0  0 
  4  5  2  0  0  0  0 
  4  6  1  0  0  0  0 
  5  7  1  0  0  0  0 
  8  6  2  0  0  0  0 
  7  9  2  0  0  0  0 
  9  8  1  0  0  0  0 
  9 10  1  0  0  0  0 
M  END
> <Name>
Benzenamine, N,N,4-trimethyl-

> <Source>
DSSTox2DMolFile

> <Tox>
3.415

> <CAS>
99-97-8

$$$$

  CDK

 10 10  0  0  0  0  0  0  0  0999 V2000
    3.3279   -2.4780    0.0000 C   0  0  0  0  0  0  0  0  0  0  0  0
    1.9991   -2.4780    0.0000 C   0  0  0  0  0  0  0  0  0  0  0  0
    3.9863   -1.3228    0.0000 C   0  0  0  0  0  0  0  0  0  0  0  0
    1.3288   -1.3228    0.0000 C   0  0  0  0  0  0  0  0  0  0  0  0
    3.3279   -0.1915    0.0000 C   0  0  0  0  0  0  0  0  0  0  0  0
    5.3150   -1.3228    0.0000 N   0  0  0  0  0  0  0  0  0  0  0  0
    1.9991   -0.1915    0.0000 C   0  0  0  0  0  0  0  0  0  0  0  0
    0.0000   -1.3228    0.0000 C   0  0  0  0  0  0  0  0  0  0  0  0
    5.9854   -2.4780    0.0000 O   0  0  0  0  0  0  0  0  0  0  0  0
    5.6323   -0.0000    0.0000 O   0  0  0  0  0  0  0  0  0  0  0  0
  1  2  2  0  0  0  0 
  1  3  1  0  0  0  0 
  2  4  1  0  0  0  0 
  3  5  2  0  0  0  0 
  3  6  1  0  0  0  0 
  4  7  2  0  0  0  0 
  4  8  1  0  0  0  0 
  7  5  1  0  0  0  0 
  6  9  2  0  0  0  0 
  6 10  1  0  0  0  0 
M  CHG  1   6   1
M  CHG  1  10  -1
M  END
> <Name>
Benzene, 1-methyl-4-nitro-

> <Source>
DSSTox2DMolFile

> <Tox>
3.440

> <CAS>
99-99-0

$$$$

  CDK

 12 12  0  0  0  0  0  0  0  0999 V2000
    0.0000   -0.0000    0.0000 O   0  0  0  0  0  0  0  0  0  0  0  0
    0.6654   -1.1511    0.0000 N   0  0  0  0  0  0  0  0  0  0  0  0
    0.0000   -2.3023    0.0000 O   0  0  0  0  0  0  0  0  0  0  0  0
    1.9962   -1.1511    0.0000 C   0  0  0  0  0  0  0  0  0  0  0  0
    2.6616   -0.0000    0.0000 C   0  0  0  0  0  0  0  0  0  0  0  0
    2.6616   -2.3023    0.0000 C   0  0  0  0  0  0  0  0  0  0  0  0
    3.9924   -0.0000    0.0000 C   0  0  0  0  0  0  0  0  0  0  0  0
    3.9924   -2.3023    0.0000 C   0  0  0  0  0  0  0  0  0  0  0  0
    4.6578   -1.1511    0.0000 C   0  0  0  0  0  0  0  0  0  0  0  0
    5.9885   -1.1511    0.0000 N   0  0  0  0  0  0  0  0  0  0  0  0
    6.6539   -0.0000    0.0000 O   0  0  0  0  0  0  0  0  0  0  0  0
    6.6539   -2.3023    0.0000 O   0  0  0  0  0  0  0  0  0  0  0  0
  1  2  1  0  0  0  0 
  2  3  2  0  0  0  0 
  2  4  1  0  0  0  0 
  4  5  2  0  0  0  0 
  4  6  1  0  0  0  0 
  5  7  1  0  0  0  0 
  8  6  2  0  0  0  0 
  7  9  2  0  0  0  0 
  9  8  1  0  0  0  0 
  9 10  1  0  0  0  0 
 10 11  1  0  0  0  0 
 10 12  2  0  0  0  0 
M  CHG  1   1  -1
M  CHG  1   2   1
M  CHG  1  10   1
M  CHG  1  11  -1
M  END
> <Name>
Benzene, 1,4-dinitro-

> <Source>
DSSTox2DMolFile

> <Tox>
5.390

> <CAS>
100-25-4

$$$$

  CDK

  8  8  0  0  0  0  0  0  0  0999 V2000
    0.0000   -0.0000    0.0000 C   0  0  0  0  0  0  0  0  0  0  0  0
    0.6654   -1.1540    0.0000 C   0  0  0  0  0  0  0  0  0  0  0  0
    1.9962   -1.1540    0.0000 C   0  0  0  0  0  0  0  0  0  0  0  0
    2.6569   -0.0000    0.0000 C   0  0  0  0  0  0  0  0  0  0  0  0
    2.6569   -2.3033    0.0000 C   0  0  0  0  0  0  0  0  0  0  0  0
    3.9877   -0.0000    0.0000 C   0  0  0  0  0  0  0  0  0  0  0  0
    3.9877   -2.3033    0.0000 C   0  0  0  0  0  0  0  0  0  0  0  0
    4.6531   -1.1540    0.0000 C   0  0  0  0  0  0  0  0  0  0  0  0
  1  2  1  0  0  0  0 
  2  3  1  0  0  0  0 
  3  4  2  0  0  0  0 
  3  5  1  0  0  0  0 
  4  6  1  0  0  0  0 
  7  5  2  0  0  0  0 
  6  8  2  0  0  0  0 
  8  7  1  0  0  0  0 
M  END
> <Name>
Benzene, ethyl-

> <Source>
DSSTox2DMolFile

> <Tox>
3.947

> <CAS>
100-41-4

$$$$

  CDK

  8  8  0  0  0  0  0  0  0  0999 V2000
    0.0000   -0.0000    0.0000 C   0  0  0  0  0  0  0  0  0  0  0  0
    0.6654   -1.1540    0.0000 C   0  0  0  0  0  0  0  0  0  0  0  0
    1.9962   -1.1540    0.0000 C   0  0  0  0  0  0  0  0  0  0  0  0
    2.6569   -0.0000    0.0000 C   0  0  0  0  0  0  0  0  0  0  0  0
    2.6569   -2.3033    0.0000 C   0  0  0  0  0  0  0  0  0  0  0  0
    3.9877   -0.0000    0.0000 C   0  0  0  0  0  0  0  0  0  0  0  0
    3.9877   -2.3033    0.0000 C   0  0  0  0  0  0  0  0  0  0  0  0
    4.6531   -1.1540    0.0000 C   0  0  0  0  0  0  0  0  0  0  0  0
  1  2  2  0  0  0  0 
  2  3  1  0  0  0  0 
  3  4  2  0  0  0  0 
  3  5  1  0  0  0  0 
  4  6  1  0  0  0  0 
  7  5  2  0  0  0  0 
  6  8  2  0  0  0  0 
  8  7  1  0  0  0  0 
M  END
> <Name>
Benzene, ethenyl-

> <Source>
DSSTox2DMolFile

> <Tox>
3.786

> <CAS>
100-42-5

$$$$

  CDK

  8  8  0  0  0  0  0  0  0  0999 V2000
    0.0000   -0.0000    0.0000 Cl  0  0  0  0  0  0  0  0  0  0  0  0
    0.6654   -1.1540    0.0000 C   0  0  0  0  0  0  0  0  0  0  0  0
    1.9962   -1.1540    0.0000 C   0  0  0  0  0  0  0  0  0  0  0  0
    2.6569   -0.0000    0.0000 C   0  0  0  0  0  0  0  0  0  0  0  0
    2.6569   -2.3033    0.0000 C   0  0  0  0  0  0  0  0  0  0  0  0
    3.9877   -0.0000    0.0000 C   0  0  0  0  0  0  0  0  0  0  0  0
    3.9877   -2.3033    0.0000 C   0  0  0  0  0  0  0  0  0  0  0  0
    4.6531   -1.1540    0.0000 C   0  0  0  0  0  0  0  0  0  0  0  0
  1  2  1  0  0  0  0 
  2  3  1  0  0  0  0 
  3  4  2  0  0  0  0 
  3  5  1  0  0  0  0 
  4  6  1  0  0  0  0 
  7  5  2  0  0  0  0 
  6  8  2  0  0  0  0 
  8  7  1  0  0  0  0 
M  END
> <Name>
Benzene, (chloromethyl)-

> <Source>
DSSTox2DMolFile

> <Tox>
4.403

> <CAS>
100-44-7

$$$$

  CDK

  8  8  0  0  0  0  0  0  0  0999 V2000
    4.6531   -1.1540    0.0000 C   0  0  0  0  0  0  0  0  0  0  0  0
    3.9877   -2.3033    0.0000 C   0  0  0  0  0  0  0  0  0  0  0  0
    3.9877   -0.0000    0.0000 C   0  0  0  0  0  0  0  0  0  0  0  0
    2.6569   -2.3033    0.0000 C   0  0  0  0  0  0  0  0  0  0  0  0
    2.6569   -0.0000    0.0000 C   0  0  0  0  0  0  0  0  0  0  0  0
    1.9962   -1.1540    0.0000 C   0  0  0  0  0  0  0  0  0  0  0  0
    0.6654   -1.1540    0.0000 N   0  0  0  0  0  0  0  0  0  0  0  0
    0.0000   -0.0000    0.0000 C   0  0  0  0  0  0  0  0  0  0  0  0
  1  2  2  0  0  0  0 
  1  3  1  0  0  0  0 
  2  4  1  0  0  0  0 
  3  5  2  0  0  0  0 
  4  6  2  0  0  0  0 
  6  5  1  0  0  0  0 
  6  7  1  0  0  0  0 
  7  8  1  0  0  0  0 
M  END
> <Name>
Benzenamine, N-methyl-

> <Source>
DSSTox2DMolFile

> <Tox>
3.030

> <CAS>
100-61-8

$$$$

  CDK

  8  8  0  0  0  0  0  0  0  0999 V2000
    0.0000   -2.3042    0.0000 O   0  0  0  0  0  0  0  0  0  0  0  0
    0.6656   -1.1544    0.0000 N   0  0  0  0  0  0  0  0  0  0  0  0
    1.9969   -1.1544    0.0000 C   0  0  0  0  0  0  0  0  0  0  0  0
    2.6579   -0.0000    0.0000 C   0  0  0  0  0  0  0  0  0  0  0  0
    2.6579   -2.3042    0.0000 C   0  0  0  0  0  0  0  0  0  0  0  0
    3.9892   -0.0000    0.0000 C   0  0  0  0  0  0  0  0  0  0  0  0
    3.9892   -2.3042    0.0000 C   0  0  0  0  0  0  0  0  0  0  0  0
    4.6549   -1.1544    0.0000 C   0  0  0  0  0  0  0  0  0  0  0  0
  1  2  1  0  0  0  0 
  2  3  2  0  0  0  0 
  3  4  1  0  0  0  0 
  3  5  1  0  0  0  0 
  4  6  1  0  0  0  0 
  7  5  1  0  0  0  0 
  6  8  1  0  0  0  0 
  8  7  1  0  0  0  0 
M  END
> <Name>
Cyclohexanone, oxime

> <Source>
DSSTox2DMolFile

> <Tox>
2.736

> <CAS>
100-64-1

$$$$

  CDK

  8  8  0  0  0  0  0  0  0  0999 V2000
    3.3250   -2.3036    0.0000 N   0  0  0  0  0  0  0  0  0  0  0  0
    2.6600   -1.1545    0.0000 C   0  0  0  0  0  0  0  0  0  0  0  0
    4.6551   -2.3036    0.0000 C   0  0  0  0  0  0  0  0  0  0  0  0
    1.3300   -1.1545    0.0000 C   0  0  0  0  0  0  0  0  0  0  0  0
    3.3250   -0.0000    0.0000 C   0  0  0  0  0  0  0  0  0  0  0  0
    5.3201   -1.1545    0.0000 C   0  0  0  0  0  0  0  0  0  0  0  0
    0.0000   -1.1545    0.0000 N   0  0  0  0  0  0  0  0  0  0  0  0
    4.6551   -0.0000    0.0000 C   0  0  0  0  0  0  0  0  0  0  0  0
  1  2  2  0  0  0  0 
  1  3  1  0  0  0  0 
  2  4  1  0  0  0  0 
  2  5  1  0  0  0  0 
  6  3  2  0  0  0  0 
  4  7  3  0  0  0  0 
  5  8  2  0  0  0  0 
  8  6  1  0  0  0  0 
M  END
> <Name>
Picolinonitrile (8CI)

> <Source>
DSSTox2DMolFile

> <Tox>
2.157

> <CAS>
100-70-9

$$$$

  CDK

  8  8  0  0  0  0  0  0  0  0999 V2000
    1.9969   -0.0000    0.0000 N   0  0  0  0  0  0  0  0  0  0  0  0
    2.6579   -1.1544    0.0000 C   0  0  0  0  0  0  0  0  0  0  0  0
    0.6656   -0.0000    0.0000 C   0  0  0  0  0  0  0  0  0  0  0  0
    3.9892   -1.1544    0.0000 C   0  0  0  0  0  0  0  0  0  0  0  0
    1.9969   -2.3042    0.0000 C   0  0  0  0  0  0  0  0  0  0  0  0
    0.0000   -1.1544    0.0000 C   0  0  0  0  0  0  0  0  0  0  0  0
    4.6549   -2.3042    0.0000 C   0  0  0  0  0  0  0  0  0  0  0  0
    0.6656   -2.3042    0.0000 C   0  0  0  0  0  0  0  0  0  0  0  0
  1  2  2  0  0  0  0 
  1  3  1  0  0  0  0 
  2  4  1  0  0  0  0 
  2  5  1  0  0  0  0 
  6  3  2  0  0  0  0 
  4  7  1  0  0  0  0 
  5  8  2  0  0  0  0 
  8  6  1  0  0  0  0 
M  END
> <Name>
Pyridine, 2-ethyl-

> <Source>
DSSTox2DMolFile

> <Tox>
2.413

> <CAS>
100-71-0

$$$$

  CDK

  9  9  0  0  0  0  0  0  0  0999 V2000
    0.0000   -0.3731    0.0000 C   0  0  0  0  0  0  0  0  0  0  0  0
    1.0753   -1.1521    0.0000 C   0  0  0  0  0  0  0  0  0  0  0  0
    0.1865   -2.1396    0.0000 C   0  0  0  0  0  0  0  0  0  0  0  0
    1.7391   -0.0000    0.0000 O   0  0  0  0  0  0  0  0  0  0  0  0
    1.9641   -2.1396    0.0000 O   0  0  0  0  0  0  0  0  0  0  0  0
    3.0449   -0.2798    0.0000 C   0  0  0  0  0  0  0  0  0  0  0  0
    3.1820   -1.6020    0.0000 C   0  0  0  0  0  0  0  0  0  0  0  0
    4.3341   -2.2658    0.0000 C   0  0  0  0  0  0  0  0  0  0  0  0
    5.4862   -1.6020    0.0000 O   0  0  0  0  0  0  0  0  0  0  0  0
  1  2  1  0  0  0  0 
  2  3  1  0  0  0  0 
  2  4  1  0  0  0  0 
  2  5  1  0  0  0  0 
  4  6  1  0  0  0  0 
  7  5  1  0  0  0  0 
  6  7  1  0  0  0  0 
  7  8  1  0  0  0  0 
  8  9  1  0  0  0  0 
M  END
> <Name>
1,3-Dioxolane-4-methanol, 2,2-dimethyl-

> <Source>
DSSTox2DMolFile

> <Tox>
0.898

> <CAS>
100-79-8

$$$$

  CDK

 10 12  0  0  0  0  0  0  0  0999 V2000
    0.5559   -2.0884    0.0000 N   0  0  0  0  0  0  0  0  0  0  0  0
    1.8120   -2.5720    0.0000 C   0  0  0  0  0  0  0  0  0  0  0  0
    0.5559   -0.6469    0.0000 C   0  0  0  0  0  0  0  0  0  0  0  0
    0.0000   -3.1404    0.0000 C   0  0  0  0  0  0  0  0  0  0  0  0
    2.9112   -1.9879    0.0000 N   0  0  0  0  0  0  0  0  0  0  0  0
    1.7586   -0.0000    0.0000 N   0  0  0  0  0  0  0  0  0  0  0  0
    1.0269   -2.6850    0.0000 N   0  0  0  0  0  0  0  0  0  0  0  0
    2.3427   -3.1404    0.0000 C   0  0  0  0  0  0  0  0  0  0  0  0
    2.9112   -0.6720    0.0000 C   0  0  0  0  0  0  0  0  0  0  0  0
    1.0269   -1.0144    0.0000 C   0  0  0  0  0  0  0  0  0  0  0  0
  1  2  1  0  0  0  0 
  1  3  1  0  0  0  0 
  1  4  1  0  0  0  0 
  5  2  1  0  0  0  0 
  6  3  1  0  0  0  0 
  7  4  1  0  0  0  0 
  5  8  1  0  0  0  0 
  5  9  1  0  0  0  0 
  6  9  1  0  0  0  0 
  6 10  1  0  0  0  0 
  7  8  1  0  0  0  0 
  7 10  1  0  0  0  0 
M  END
> <Name>
1,3,5,7-Tetraazatricyclo(3.3.1.13,7)decane

> <Source>
DSSTox2DMolFile

> <Tox>
0.449

> <CAS>
100-97-0

$$$$

  CDK

 19 20  0  0  0  0  0  0  0  0999 V2000
    5.7600   -0.6682    0.0000 O   0  0  0  0  0  0  0  0  0  0  0  0
    5.7600   -1.9929    0.0000 C   0  0  0  0  0  0  0  0  0  0  0  0
    4.6080   -2.6611    0.0000 N   0  0  0  0  0  0  0  0  0  0  0  0
    6.9120   -2.6611    0.0000 N   0  0  0  0  0  0  0  0  0  0  0  0
    3.4560   -1.9929    0.0000 C   0  0  0  0  0  0  0  0  0  0  0  0
    8.0640   -1.9929    0.0000 C   0  0  0  0  0  0  0  0  0  0  0  0
    2.3040   -2.6611    0.0000 C   0  0  0  0  0  0  0  0  0  0  0  0
    3.4560   -0.6682    0.0000 C   0  0  0  0  0  0  0  0  0  0  0  0
    8.0640   -0.6682    0.0000 C   0  0  0  0  0  0  0  0  0  0  0  0
    9.2159   -2.6611    0.0000 C   0  0  0  0  0  0  0  0  0  0  0  0
    1.1520   -1.9929    0.0000 C   0  0  0  0  0  0  0  0  0  0  0  0
    2.3040   -0.0000    0.0000 C   0  0  0  0  0  0  0  0  0  0  0  0
    9.2159   -0.0000    0.0000 C   0  0  0  0  0  0  0  0  0  0  0  0
   10.3679   -1.9929    0.0000 C   0  0  0  0  0  0  0  0  0  0  0  0
    1.1520   -0.6682    0.0000 C   0  0  0  0  0  0  0  0  0  0  0  0
   10.3679   -0.6682    0.0000 C   0  0  0  0  0  0  0  0  0  0  0  0
   11.5199   -2.6611    0.0000 Cl  0  0  0  0  0  0  0  0  0  0  0  0
    0.0000   -0.0000    0.0000 Cl  0  0  0  0  0  0  0  0  0  0  0  0
   11.5199   -0.0000    0.0000 Cl  0  0  0  0  0  0  0  0  0  0  0  0
  1  2  2  0  0  0  0 
  2  3  1  0  0  0  0 
  2  4  1  0  0  0  0 
  3  5  1  0  0  0  0 
  4  6  1  0  0  0  0 
  5  7  2  0  0  0  0 
  5  8  1  0  0  0  0 
  6  9  2  0  0  0  0 
  6 10  1  0  0  0  0 
  7 11  1  0  0  0  0 
 12  8  2  0  0  0  0 
  9 13  1  0  0  0  0 
 14 10  2  0  0  0  0 
 11 15  2  0  0  0  0 
 15 12  1  0  0  0  0 
 13 16  2  0  0  0  0 
 16 14  1  0  0  0  0 
 14 17  1  0  0  0  0 
 15 18  1  0  0  0  0 
 16 19  1  0  0  0  0 
M  END
> <Name>
Urea, N-(4-chlorophenyl)-N'-(3,4-dichlorophenyl)-

> <Source>
DSSTox2DMolFile

> <Tox>
6.535

> <CAS>
101-20-2

$$$$

  CDK

 13 14  0  0  0  0  0  0  0  0999 V2000
    1.1539   -2.6602    0.0000 C   0  0  0  0  0  0  0  0  0  0  0  0
    0.0000   -1.9969    0.0000 C   0  0  0  0  0  0  0  0  0  0  0  0
    2.3009   -1.9969    0.0000 C   0  0  0  0  0  0  0  0  0  0  0  0
    0.0000   -0.6633    0.0000 C   0  0  0  0  0  0  0  0  0  0  0  0
    2.3009   -0.6633    0.0000 C   0  0  0  0  0  0  0  0  0  0  0  0
    3.4548   -2.6602    0.0000 O   0  0  0  0  0  0  0  0  0  0  0  0
    1.1539   -0.0000    0.0000 C   0  0  0  0  0  0  0  0  0  0  0  0
    4.6087   -1.9969    0.0000 C   0  0  0  0  0  0  0  0  0  0  0  0
    4.6087   -0.6633    0.0000 C   0  0  0  0  0  0  0  0  0  0  0  0
    5.7557   -2.6602    0.0000 C   0  0  0  0  0  0  0  0  0  0  0  0
    5.7557   -0.0000    0.0000 C   0  0  0  0  0  0  0  0  0  0  0  0
    6.9096   -1.9969    0.0000 C   0  0  0  0  0  0  0  0  0  0  0  0
    6.9096   -0.6633    0.0000 C   0  0  0  0  0  0  0  0  0  0  0  0
  1  2  2  0  0  0  0 
  1  3  1  0  0  0  0 
  2  4  1  0  0  0  0 
  5  3  2  0  0  0  0 
  3  6  1  0  0  0  0 
  4  7  2  0  0  0  0 
  7  5  1  0  0  0  0 
  6  8  1  0  0  0  0 
  8  9  2  0  0  0  0 
  8 10  1  0  0  0  0 
  9 11  1  0  0  0  0 
 12 10  2  0  0  0  0 
 11 13  2  0  0  0  0 
 13 12  1  0  0  0  0 
M  END
> <Name>
Benzene, 1,1'-oxybis-

> <Source>
DSSTox2DMolFile

> <Tox>
4.629

> <CAS>
101-84-8

$$$$

  CDK

 16 17  0  0  0  0  0  0  0  0999 V2000
    5.7537   -2.6605    0.0000 N   0  0  0  0  0  0  0  0  0  0  0  0
    6.9044   -1.9977    0.0000 C   0  0  0  0  0  0  0  0  0  0  0  0
    4.6029   -1.9977    0.0000 C   0  0  0  0  0  0  0  0  0  0  0  0
    6.9044   -0.6628    0.0000 C   0  0  0  0  0  0  0  0  0  0  0  0
    8.0551   -2.6605    0.0000 C   0  0  0  0  0  0  0  0  0  0  0  0
    4.6029   -0.6628    0.0000 S   0  0  0  0  0  0  0  0  0  0  0  0
    3.4522   -2.6605    0.0000 N   0  0  0  0  0  0  0  0  0  0  0  0
    8.0551   -0.0000    0.0000 C   0  0  0  0  0  0  0  0  0  0  0  0
    9.2059   -1.9977    0.0000 C   0  0  0  0  0  0  0  0  0  0  0  0
    2.3015   -1.9977    0.0000 C   0  0  0  0  0  0  0  0  0  0  0  0
    9.2059   -0.6628    0.0000 C   0  0  0  0  0  0  0  0  0  0  0  0
    1.1507   -2.6605    0.0000 C   0  0  0  0  0  0  0  0  0  0  0  0
    2.3015   -0.6628    0.0000 C   0  0  0  0  0  0  0  0  0  0  0  0
    0.0000   -1.9977    0.0000 C   0  0  0  0  0  0  0  0  0  0  0  0
    1.1507   -0.0000    0.0000 C   0  0  0  0  0  0  0  0  0  0  0  0
    0.0000   -0.6628    0.0000 C   0  0  0  0  0  0  0  0  0  0  0  0
  1  2  1  0  0  0  0 
  1  3  1  0  0  0  0 
  2  4  2  0  0  0  0 
  2  5  1  0  0  0  0 
  3  6  2  0  0  0  0 
  3  7  1  0  0  0  0 
  4  8  1  0  0  0  0 
  9  5  2  0  0  0  0 
  7 10  1  0  0  0  0 
  8 11  2  0  0  0  0 
 11  9  1  0  0  0  0 
 10 12  2  0  0  0  0 
 10 13  1  0  0  0  0 
 12 14  1  0  0  0  0 
 15 13  2  0  0  0  0 
 14 16  2  0  0  0  0 
 16 15  1  0  0  0  0 
M  END
> <Name>
Thiourea, N,N'-diphenyl-

> <Source>
DSSTox2DMolFile

> <Tox>
4.082

> <CAS>
102-08-9

$$$$

  CDK

 10 10  0  0  0  0  0  0  0  0999 V2000
    6.9112   -2.6608    0.0000 C   0  0  0  0  0  0  0  0  0  0  0  0
    5.7570   -1.9973    0.0000 C   0  0  0  0  0  0  0  0  0  0  0  0
    4.6098   -2.6608    0.0000 N   0  0  0  0  0  0  0  0  0  0  0  0
    3.4556   -1.9973    0.0000 C   0  0  0  0  0  0  0  0  0  0  0  0
    2.3014   -2.6608    0.0000 C   0  0  0  0  0  0  0  0  0  0  0  0
    3.4556   -0.6635    0.0000 C   0  0  0  0  0  0  0  0  0  0  0  0
    1.1542   -1.9973    0.0000 C   0  0  0  0  0  0  0  0  0  0  0  0
    2.3014   -0.0000    0.0000 C   0  0  0  0  0  0  0  0  0  0  0  0
    0.0000   -2.6608    0.0000 C   0  0  0  0  0  0  0  0  0  0  0  0
    1.1542   -0.6635    0.0000 C   0  0  0  0  0  0  0  0  0  0  0  0
  1  2  1  0  0  0  0 
  2  3  1  0  0  0  0 
  3  4  1  0  0  0  0 
  4  5  2  0  0  0  0 
  4  6  1  0  0  0  0 
  5  7  1  0  0  0  0 
  8  6  2  0  0  0  0 
  7  9  1  0  0  0  0 
  7 10  2  0  0  0  0 
 10  8  1  0  0  0  0 
M  END
> <Name>
Benzenamine, N-ethyl-3-methyl-

> <Source>
DSSTox2DMolFile

> <Tox>
3.436

> <CAS>
102-27-2

$$$$

  CDK

 10  9  0  0  0  0  0  0  0  0999 V2000
    0.0000   -3.4540    0.0000 O   0  0  0  0  0  0  0  0  0  0  0  0
    0.6645   -2.3047    0.0000 C   0  0  0  0  0  0  0  0  0  0  0  0
    1.9934   -2.3047    0.0000 C   0  0  0  0  0  0  0  0  0  0  0  0
    2.6578   -1.1493    0.0000 N   0  0  0  0  0  0  0  0  0  0  0  0
    1.9934   -0.0000    0.0000 C   0  0  0  0  0  0  0  0  0  0  0  0
    3.9928   -1.1493    0.0000 C   0  0  0  0  0  0  0  0  0  0  0  0
    0.6645   -0.0000    0.0000 C   0  0  0  0  0  0  0  0  0  0  0  0
    4.6572   -2.3047    0.0000 C   0  0  0  0  0  0  0  0  0  0  0  0
    0.0000   -1.1493    0.0000 O   0  0  0  0  0  0  0  0  0  0  0  0
    5.9861   -2.3047    0.0000 O   0  0  0  0  0  0  0  0  0  0  0  0
  1  2  1  0  0  0  0 
  2  3  1  0  0  0  0 
  3  4  1  0  0  0  0 
  4  5  1  0  0  0  0 
  4  6  1  0  0  0  0 
  5  7  1  0  0  0  0 
  6  8  1  0  0  0  0 
  7  9  1  0  0  0  0 
  8 10  1  0  0  0  0 
M  END
> <Name>
Ethanol, 2,2',2''-nitrilotris-

> <Source>
DSSTox2DMolFile

> <Tox>
1.102

> <CAS>
102-71-6

$$$$

  CDK

 12 12  0  0  0  0  0  0  0  0999 V2000
    1.9960   -3.6337    0.0000 C   0  0  0  0  0  0  0  0  0  0  0  0
    0.6653   -3.6337    0.0000 C   0  0  0  0  0  0  0  0  0  0  0  0
    2.6613   -2.4858    0.0000 C   0  0  0  0  0  0  0  0  0  0  0  0
    0.0000   -2.4858    0.0000 C   0  0  0  0  0  0  0  0  0  0  0  0
    1.9960   -1.3307    0.0000 C   0  0  0  0  0  0  0  0  0  0  0  0
    3.9846   -2.4858    0.0000 C   0  0  0  0  0  0  0  0  0  0  0  0
    0.6653   -1.3307    0.0000 C   0  0  0  0  0  0  0  0  0  0  0  0
    4.6500   -1.3307    0.0000 C   0  0  0  0  0  0  0  0  0  0  0  0
    5.9806   -1.3307    0.0000 C   0  0  0  0  0  0  0  0  0  0  0  0
    5.9806   -0.0000    0.0000 C   0  0  0  0  0  0  0  0  0  0  0  0
    7.3113   -1.3307    0.0000 C   0  0  0  0  0  0  0  0  0  0  0  0
    5.9806   -2.6613    0.0000 O   0  0  0  0  0  0  0  0  0  0  0  0
  1  2  2  0  0  0  0 
  1  3  1  0  0  0  0 
  2  4  1  0  0  0  0 
  5  3  2  0  0  0  0 
  3  6  1  0  0  0  0 
  4  7  2  0  0  0  0 
  7  5  1  0  0  0  0 
  6  8  1  0  0  0  0 
  8  9  1  0  0  0  0 
  9 10  1  0  0  0  0 
  9 11  1  0  0  0  0 
  9 12  1  0  0  0  0 
M  END
> <Name>
1-Propanol, 1,1-dimethyl-3-phenyl- (8CI)

> <Source>
DSSTox2DMolFile

> <Tox>
3.393

> <CAS>
103-05-9

$$$$

  CDK

  9  9  0  0  0  0  0  0  0  0999 V2000
    0.0000   -0.0000    0.0000 O   0  0  0  0  0  0  0  0  0  0  0  0
    1.3283   -0.0000    0.0000 C   0  0  0  0  0  0  0  0  0  0  0  0
    1.9925   -1.1548    0.0000 C   0  0  0  0  0  0  0  0  0  0  0  0
    3.3269   -1.1548    0.0000 N   0  0  0  0  0  0  0  0  0  0  0  0
    3.9910   -0.0000    0.0000 C   0  0  0  0  0  0  0  0  0  0  0  0
    3.9910   -2.3037    0.0000 C   0  0  0  0  0  0  0  0  0  0  0  0
    5.3194   -0.0000    0.0000 C   0  0  0  0  0  0  0  0  0  0  0  0
    5.3194   -2.3037    0.0000 C   0  0  0  0  0  0  0  0  0  0  0  0
    5.9836   -1.1548    0.0000 N   0  0  0  0  0  0  0  0  0  0  0  0
  1  2  1  0  0  0  0 
  2  3  1  0  0  0  0 
  3  4  1  0  0  0  0 
  4  5  1  0  0  0  0 
  4  6  1  0  0  0  0 
  5  7  1  0  0  0  0 
  8  6  1  0  0  0  0 
  7  9  1  0  0  0  0 
  9  8  1  0  0  0  0 
M  END
> <Name>
N-(2-Hydroxyethyl)piperazine

> <Source>
DSSTox2DMolFile

> <Tox>
1.308

> <CAS>
103-76-4

$$$$

  CDK

 16 16  0  0  0  0  0  0  0  0999 V2000
    0.0000   -2.6554    0.0000 C   0  0  0  0  0  0  0  0  0  0  0  0
    1.1479   -1.9916    0.0000 C   0  0  0  0  0  0  0  0  0  0  0  0
    2.3097   -2.6554    0.0000 C   0  0  0  0  0  0  0  0  0  0  0  0
    3.4576   -1.9916    0.0000 C   0  0  0  0  0  0  0  0  0  0  0  0
    4.6055   -2.6554    0.0000 C   0  0  0  0  0  0  0  0  0  0  0  0
    5.7672   -1.9916    0.0000 C   0  0  0  0  0  0  0  0  0  0  0  0
    6.9151   -2.6554    0.0000 C   0  0  0  0  0  0  0  0  0  0  0  0
    8.0630   -1.9916    0.0000 C   0  0  0  0  0  0  0  0  0  0  0  0
    9.2248   -2.6554    0.0000 C   0  0  0  0  0  0  0  0  0  0  0  0
   10.3727   -1.9916    0.0000 C   0  0  0  0  0  0  0  0  0  0  0  0
   10.3727   -0.6639    0.0000 C   0  0  0  0  0  0  0  0  0  0  0  0
   11.5206   -2.6554    0.0000 C   0  0  0  0  0  0  0  0  0  0  0  0
   11.5206   -0.0000    0.0000 C   0  0  0  0  0  0  0  0  0  0  0  0
   12.6823   -1.9916    0.0000 C   0  0  0  0  0  0  0  0  0  0  0  0
   12.6823   -0.6639    0.0000 C   0  0  0  0  0  0  0  0  0  0  0  0
   13.8302   -0.0000    0.0000 O   0  0  0  0  0  0  0  0  0  0  0  0
  1  2  1  0  0  0  0 
  2  3  1  0  0  0  0 
  3  4  1  0  0  0  0 
  4  5  1  0  0  0  0 
  5  6  1  0  0  0  0 
  6  7  1  0  0  0  0 
  7  8  1  0  0  0  0 
  8  9  1  0  0  0  0 
  9 10  1  0  0  0  0 
 10 11  2  0  0  0  0 
 10 12  1  0  0  0  0 
 11 13  1  0  0  0  0 
 14 12  2  0  0  0  0 
 13 15  2  0  0  0  0 
 15 14  1  0  0  0  0 
 15 16  1  0  0  0  0 
M  END
> <Name>
Phenol, 4-nonyl-

> <Source>
DSSTox2DMolFile

> <Tox>
5.912

> <CAS>
104-40-5

$$$$

  CDK

 13 13  0  0  0  0  0  0  0  0999 V2000
    9.9799   -1.0749    0.0000 C   0  0  0  0  0  0  0  0  0  0  0  0
    9.2105   -2.1499    0.0000 O   0  0  0  0  0  0  0  0  0  0  0  0
   11.3151   -1.0749    0.0000 O   0  0  0  0  0  0  0  0  0  0  0  0
    9.2105   -0.0000    0.0000 C   0  0  0  0  0  0  0  0  0  0  0  0
    7.9545   -1.7312    0.0000 C   0  0  0  0  0  0  0  0  0  0  0  0
    7.9545   -0.3960    0.0000 C   0  0  0  0  0  0  0  0  0  0  0  0
    6.8796   -2.5119    0.0000 C   0  0  0  0  0  0  0  0  0  0  0  0
    5.6575   -1.9688    0.0000 C   0  0  0  0  0  0  0  0  0  0  0  0
    4.5826   -2.7609    0.0000 C   0  0  0  0  0  0  0  0  0  0  0  0
    3.3606   -2.2064    0.0000 C   0  0  0  0  0  0  0  0  0  0  0  0
    2.2970   -2.9985    0.0000 C   0  0  0  0  0  0  0  0  0  0  0  0
    1.0749   -2.4554    0.0000 C   0  0  0  0  0  0  0  0  0  0  0  0
    0.0000   -3.2361    0.0000 C   0  0  0  0  0  0  0  0  0  0  0  0
  1  2  1  0  0  0  0 
  1  3  2  0  0  0  0 
  1  4  1  0  0  0  0 
  2  5  1  0  0  0  0 
  4  6  1  0  0  0  0 
  5  7  1  0  0  0  0 
  5  6  1  0  0  0  0 
  7  8  1  0  0  0  0 
  8  9  1  0  0  0  0 
  9 10  1  0  0  0  0 
 11 10  1  0  0  0  0 
 12 11  1  0  0  0  0 
 12 13  1  0  0  0  0 
M  END
> <Name>
Undecanoic acid, 4-hydroxy-, gamma-lactone

> <Source>
DSSTox2DMolFile

> <Tox>
2.092

> <CAS>
104-67-6

$$$$

  CDK

  9  8  0  0  0  0  0  0  0  0999 V2000
    0.0000   -4.6059    0.0000 C   0  0  0  0  0  0  0  0  0  0  0  0
    0.6657   -3.4484    0.0000 C   0  0  0  0  0  0  0  0  0  0  0  0
    1.9971   -3.4484    0.0000 C   0  0  0  0  0  0  0  0  0  0  0  0
    2.6628   -2.3089    0.0000 C   0  0  0  0  0  0  0  0  0  0  0  0
    4.0001   -2.3089    0.0000 C   0  0  0  0  0  0  0  0  0  0  0  0
    4.6658   -3.4484    0.0000 C   0  0  0  0  0  0  0  0  0  0  0  0
    4.6658   -1.1515    0.0000 C   0  0  0  0  0  0  0  0  0  0  0  0
    5.9972   -3.4484    0.0000 O   0  0  0  0  0  0  0  0  0  0  0  0
    4.0001   -0.0000    0.0000 C   0  0  0  0  0  0  0  0  0  0  0  0
  1  2  1  0  0  0  0 
  2  3  1  0  0  0  0 
  3  4  1  0  0  0  0 
  4  5  1  0  0  0  0 
  5  6  1  0  0  0  0 
  5  7  1  0  0  0  0 
  6  8  1  0  0  0  0 
  7  9  1  0  0  0  0 
M  END
> <Name>
1-Hexanol, 2-ethyl-

> <Source>
DSSTox2DMolFile

> <Tox>
3.664

> <CAS>
104-76-7

$$$$

  CDK

  9  9  0  0  0  0  0  0  0  0999 V2000
    5.9806   -1.1542    0.0000 Cl  0  0  0  0  0  0  0  0  0  0  0  0
    4.6529   -1.1542    0.0000 C   0  0  0  0  0  0  0  0  0  0  0  0
    3.9890   -2.3025    0.0000 C   0  0  0  0  0  0  0  0  0  0  0  0
    3.9890   -0.0000    0.0000 C   0  0  0  0  0  0  0  0  0  0  0  0
    2.6554   -2.3025    0.0000 C   0  0  0  0  0  0  0  0  0  0  0  0
    2.6554   -0.0000    0.0000 C   0  0  0  0  0  0  0  0  0  0  0  0
    1.9915   -1.1542    0.0000 C   0  0  0  0  0  0  0  0  0  0  0  0
    0.6638   -1.1542    0.0000 C   0  0  0  0  0  0  0  0  0  0  0  0
    0.0000   -0.0000    0.0000 O   0  0  0  0  0  0  0  0  0  0  0  0
  1  2  1  0  0  0  0 
  2  3  2  0  0  0  0 
  2  4  1  0  0  0  0 
  3  5  1  0  0  0  0 
  4  6  2  0  0  0  0 
  5  7  2  0  0  0  0 
  7  6  1  0  0  0  0 
  7  8  1  0  0  0  0 
  8  9  2  0  0  0  0 
M  END
> <Name>
Benzaldehyde, 4-chloro-

> <Source>
DSSTox2DMolFile

> <Tox>
4.805

> <CAS>
104-88-1

$$$$

  CDK

  9  9  0  0  0  0  0  0  0  0999 V2000
    3.9890   -0.0000    0.0000 N   0  0  0  0  0  0  0  0  0  0  0  0
    4.6529   -1.1542    0.0000 C   0  0  0  0  0  0  0  0  0  0  0  0
    2.6554   -0.0000    0.0000 C   0  0  0  0  0  0  0  0  0  0  0  0
    5.9806   -1.1542    0.0000 C   0  0  0  0  0  0  0  0  0  0  0  0
    3.9890   -2.3025    0.0000 C   0  0  0  0  0  0  0  0  0  0  0  0
    1.9915   -1.1542    0.0000 C   0  0  0  0  0  0  0  0  0  0  0  0
    2.6554   -2.3025    0.0000 C   0  0  0  0  0  0  0  0  0  0  0  0
    0.6638   -1.1542    0.0000 C   0  0  0  0  0  0  0  0  0  0  0  0
    0.0000   -0.0000    0.0000 C   0  0  0  0  0  0  0  0  0  0  0  0
  1  2  2  0  0  0  0 
  1  3  1  0  0  0  0 
  2  4  1  0  0  0  0 
  2  5  1  0  0  0  0 
  6  3  2  0  0  0  0 
  5  7  2  0  0  0  0 
  7  6  1  0  0  0  0 
  6  8  1  0  0  0  0 
  8  9  1  0  0  0  0 
M  END
> <Name>
Pyridine, 5-ethyl-2-methyl-

> <Source>
DSSTox2DMolFile

> <Tox>
3.174

> <CAS>
104-90-5

$$$$

  CDK

 11 10  0  0  0  0  0  0  0  0999 V2000
    0.0000   -1.3268    0.0000 C   0  0  0  0  0  0  0  0  0  0  0  0
    1.1540   -1.9902    0.0000 C   0  0  0  0  0  0  0  0  0  0  0  0
    1.1540   -3.3239    0.0000 O   0  0  0  0  0  0  0  0  0  0  0  0
    2.3011   -1.3268    0.0000 C   0  0  0  0  0  0  0  0  0  0  0  0
    3.4552   -1.9902    0.0000 C   0  0  0  0  0  0  0  0  0  0  0  0
    4.6092   -1.3268    0.0000 C   0  0  0  0  0  0  0  0  0  0  0  0
    5.7563   -1.9902    0.0000 N   0  0  0  0  0  0  0  0  0  0  0  0
    6.9103   -1.3268    0.0000 C   0  0  0  0  0  0  0  0  0  0  0  0
    5.7563   -3.3239    0.0000 C   0  0  0  0  0  0  0  0  0  0  0  0
    6.9103   -0.0000    0.0000 C   0  0  0  0  0  0  0  0  0  0  0  0
    6.9103   -3.9873    0.0000 C   0  0  0  0  0  0  0  0  0  0  0  0
  1  2  1  0  0  0  0 
  2  3  2  0  0  0  0 
  2  4  1  0  0  0  0 
  4  5  1  0  0  0  0 
  5  6  1  0  0  0  0 
  6  7  1  0  0  0  0 
  7  8  1  0  0  0  0 
  7  9  1  0  0  0  0 
  8 10  1  0  0  0  0 
  9 11  1  0  0  0  0 
M  END
> <Name>
2-Pentanone, 5-(diethylamino)-

> <Source>
DSSTox2DMolFile

> <Tox>
2.670

> <CAS>
105-14-6

$$$$

  CDK

 11 10  0  0  0  0  0  0  0  0999 V2000
    1.9932   -0.0000    0.0000 C   0  0  0  0  0  0  0  0  0  0  0  0
    0.6625   -0.0000    0.0000 C   0  0  0  0  0  0  0  0  0  0  0  0
    0.0000   -1.1521    0.0000 O   0  0  0  0  0  0  0  0  0  0  0  0
    0.6625   -2.3043    0.0000 C   0  0  0  0  0  0  0  0  0  0  0  0
    1.9932   -2.3043    0.0000 O   0  0  0  0  0  0  0  0  0  0  0  0
    0.0000   -3.4564    0.0000 C   0  0  0  0  0  0  0  0  0  0  0  0
    0.6625   -4.6086    0.0000 C   0  0  0  0  0  0  0  0  0  0  0  0
    0.0000   -5.7607    0.0000 O   0  0  0  0  0  0  0  0  0  0  0  0
    1.9932   -4.6086    0.0000 O   0  0  0  0  0  0  0  0  0  0  0  0
    2.6615   -5.7607    0.0000 C   0  0  0  0  0  0  0  0  0  0  0  0
    3.9922   -5.7607    0.0000 C   0  0  0  0  0  0  0  0  0  0  0  0
  1  2  1  0  0  0  0 
  2  3  1  0  0  0  0 
  3  4  1  0  0  0  0 
  4  5  2  0  0  0  0 
  4  6  1  0  0  0  0 
  6  7  1  0  0  0  0 
  7  8  2  0  0  0  0 
  7  9  1  0  0  0  0 
  9 10  1  0  0  0  0 
 10 11  1  0  0  0  0 
M  END
> <Name>
Propanedioic acid, diethyl ester

> <Source>
DSSTox2DMolFile

> <Tox>
4.016

> <CAS>
105-53-3

$$$$

  CDK

 16 15  0  0  0  0  0  0  0  0999 V2000
   12.6865   -3.3366    0.0000 C   0  0  0  0  0  0  0  0  0  0  0  0
   11.5320   -3.9963    0.0000 C   0  0  0  0  0  0  0  0  0  0  0  0
   10.3776   -3.3366    0.0000 C   0  0  0  0  0  0  0  0  0  0  0  0
    9.2231   -3.9963    0.0000 C   0  0  0  0  0  0  0  0  0  0  0  0
    8.0686   -3.3366    0.0000 O   0  0  0  0  0  0  0  0  0  0  0  0
    6.9142   -3.9963    0.0000 C   0  0  0  0  0  0  0  0  0  0  0  0
    6.9142   -5.3283    0.0000 O   0  0  0  0  0  0  0  0  0  0  0  0
    5.7724   -3.3366    0.0000 C   0  0  0  0  0  0  0  0  0  0  0  0
    4.6179   -3.9963    0.0000 C   0  0  0  0  0  0  0  0  0  0  0  0
    3.4634   -3.3366    0.0000 C   0  0  0  0  0  0  0  0  0  0  0  0
    3.4634   -2.0045    0.0000 O   0  0  0  0  0  0  0  0  0  0  0  0
    2.3089   -3.9963    0.0000 O   0  0  0  0  0  0  0  0  0  0  0  0
    1.1545   -3.3366    0.0000 C   0  0  0  0  0  0  0  0  0  0  0  0
    1.1545   -2.0045    0.0000 C   0  0  0  0  0  0  0  0  0  0  0  0
    0.0000   -1.3321    0.0000 C   0  0  0  0  0  0  0  0  0  0  0  0
    0.0000   -0.0000    0.0000 C   0  0  0  0  0  0  0  0  0  0  0  0
  1  2  1  0  0  0  0 
  2  3  1  0  0  0  0 
  3  4  1  0  0  0  0 
  4  5  1  0  0  0  0 
  5  6  1  0  0  0  0 
  6  7  2  0  0  0  0 
  6  8  1  0  0  0  0 
  8  9  2  0  0  0  0 
  9 10  1  0  0  0  0 
 10 11  2  0  0  0  0 
 10 12  1  0  0  0  0 
 12 13  1  0  0  0  0 
 13 14  1  0  0  0  0 
 14 15  1  0  0  0  0 
 15 16  1  0  0  0  0 
M  END
> <Name>
2-Butenedioic acid (E)-, dibutyl ester (9CI)

> <Source>
DSSTox2DMolFile

> <Tox>
5.522

> <CAS>
105-75-9

$$$$

  CDK

 18 17  0  0  0  0  0  0  0  0999 V2000
    0.0000   -1.9924    0.0000 C   0  0  0  0  0  0  0  0  0  0  0  0
    1.1608   -1.3340    0.0000 C   0  0  0  0  0  0  0  0  0  0  0  0
    2.3042   -1.9924    0.0000 C   0  0  0  0  0  0  0  0  0  0  0  0
    3.4650   -1.3340    0.0000 C   0  0  0  0  0  0  0  0  0  0  0  0
    4.6258   -1.9924    0.0000 O   0  0  0  0  0  0  0  0  0  0  0  0
    5.7692   -1.3340    0.0000 C   0  0  0  0  0  0  0  0  0  0  0  0
    5.7692   -0.0000    0.0000 O   0  0  0  0  0  0  0  0  0  0  0  0
    6.9300   -1.9924    0.0000 C   0  0  0  0  0  0  0  0  0  0  0  0
    8.0908   -1.3340    0.0000 C   0  0  0  0  0  0  0  0  0  0  0  0
    9.2342   -1.9924    0.0000 C   0  0  0  0  0  0  0  0  0  0  0  0
   10.3950   -1.3340    0.0000 C   0  0  0  0  0  0  0  0  0  0  0  0
   11.5558   -1.9924    0.0000 C   0  0  0  0  0  0  0  0  0  0  0  0
   11.5558   -3.3264    0.0000 O   0  0  0  0  0  0  0  0  0  0  0  0
   12.6992   -1.3340    0.0000 O   0  0  0  0  0  0  0  0  0  0  0  0
   13.8600   -1.9924    0.0000 C   0  0  0  0  0  0  0  0  0  0  0  0
   15.0208   -1.3340    0.0000 C   0  0  0  0  0  0  0  0  0  0  0  0
   16.1643   -1.9924    0.0000 C   0  0  0  0  0  0  0  0  0  0  0  0
   17.3250   -1.3340    0.0000 C   0  0  0  0  0  0  0  0  0  0  0  0
  1  2  1  0  0  0  0 
  2  3  1  0  0  0  0 
  3  4  1  0  0  0  0 
  4  5  1  0  0  0  0 
  5  6  1  0  0  0  0 
  6  7  2  0  0  0  0 
  6  8  1  0  0  0  0 
  8  9  1  0  0  0  0 
  9 10  1  0  0  0  0 
 10 11  1  0  0  0  0 
 11 12  1  0  0  0  0 
 12 13  2  0  0  0  0 
 12 14  1  0  0  0  0 
 14 15  1  0  0  0  0 
 15 16  1  0  0  0  0 
 16 17  1  0  0  0  0 
 17 18  1  0  0  0  0 
M  END
> <Name>
Hexanedioic acid, dibutyl ester

> <Source>
DSSTox2DMolFile

> <Tox>
4.851

> <CAS>
105-99-7

$$$$

  CDK

 11 10  0  0  0  0  0  0  0  0999 V2000
    1.1516   -1.3280    0.0000 C   0  0  0  0  0  0  0  0  0  0  0  0
    2.3310   -1.9781    0.0000 C   0  0  0  0  0  0  0  0  0  0  0  0
    0.0000   -1.9781    0.0000 O   0  0  0  0  0  0  0  0  0  0  0  0
    3.4640   -1.3280    0.0000 C   0  0  0  0  0  0  0  0  0  0  0  0
    4.6155   -1.9781    0.0000 C   0  0  0  0  0  0  0  0  0  0  0  0
    3.4640   -0.0000    0.0000 C   0  0  0  0  0  0  0  0  0  0  0  0
    5.7949   -1.3280    0.0000 C   0  0  0  0  0  0  0  0  0  0  0  0
    6.9558   -1.9781    0.0000 C   0  0  0  0  0  0  0  0  0  0  0  0
    8.1074   -1.3280    0.0000 C   0  0  0  0  0  0  0  0  0  0  0  0
    9.2868   -1.9781    0.0000 C   0  0  0  0  0  0  0  0  0  0  0  0
    8.1074   -0.0000    0.0000 C   0  0  0  0  0  0  0  0  0  0  0  0
  1  2  1  0  0  0  0 
  1  3  1  0  0  0  0 
  2  4  2  0  0  0  0 
  4  5  1  0  0  0  0 
  4  6  1  0  0  0  0 
  5  7  1  0  0  0  0 
  7  8  1  0  0  0  0 
  8  9  2  0  0  0  0 
  9 10  1  0  0  0  0 
  9 11  1  0  0  0  0 
M  END
> <Name>
2,6-Octadien-1-ol, 3,7-dimethyl-, (2E)-

> <Source>
DSSTox2DMolFile

> <Tox>
4.586

> <CAS>
106-24-1

$$$$

  CDK

  8  8  0  0  0  0  0  0  0  0999 V2000
    1.1558   -5.3261    0.0000 Br  0  0  0  0  0  0  0  0  0  0  0  0
    1.1558   -3.9945    0.0000 C   0  0  0  0  0  0  0  0  0  0  0  0
    2.3115   -3.3181    0.0000 C   0  0  0  0  0  0  0  0  0  0  0  0
    0.0000   -3.3181    0.0000 C   0  0  0  0  0  0  0  0  0  0  0  0
    2.3115   -2.0079    0.0000 C   0  0  0  0  0  0  0  0  0  0  0  0
    0.0000   -2.0079    0.0000 C   0  0  0  0  0  0  0  0  0  0  0  0
    1.1558   -1.3315    0.0000 C   0  0  0  0  0  0  0  0  0  0  0  0
    1.1558   -0.0000    0.0000 Br  0  0  0  0  0  0  0  0  0  0  0  0
  1  2  1  0  0  0  0 
  3  2  2  0  0  0  0 
  2  4  1  0  0  0  0 
  5  3  1  0  0  0  0 
  6  4  2  0  0  0  0 
  5  7  2  0  0  0  0 
  7  6  1  0  0  0  0 
  7  8  1  0  0  0  0 
M  END
> <Name>
Benzene, 1,4-dibromo-

> <Source>
DSSTox2DMolFile

> <Tox>
5.284

> <CAS>
106-37-6

$$$$

  CDK

  8  8  0  0  0  0  0  0  0  0999 V2000
    0.0000   -1.1545    0.0000 N   0  0  0  0  0  0  0  0  0  0  0  0
    1.3300   -1.1545    0.0000 C   0  0  0  0  0  0  0  0  0  0  0  0
    1.9950   -0.0000    0.0000 C   0  0  0  0  0  0  0  0  0  0  0  0
    1.9950   -2.3036    0.0000 C   0  0  0  0  0  0  0  0  0  0  0  0
    3.3250   -0.0000    0.0000 C   0  0  0  0  0  0  0  0  0  0  0  0
    3.3250   -2.3036    0.0000 C   0  0  0  0  0  0  0  0  0  0  0  0
    3.9900   -1.1545    0.0000 C   0  0  0  0  0  0  0  0  0  0  0  0
    5.3201   -1.1545    0.0000 Br  0  0  0  0  0  0  0  0  0  0  0  0
  1  2  1  0  0  0  0 
  2  3  2  0  0  0  0 
  2  4  1  0  0  0  0 
  3  5  1  0  0  0  0 
  6  4  2  0  0  0  0 
  5  7  2  0  0  0  0 
  7  6  1  0  0  0  0 
  7  8  1  0  0  0  0 
M  END
> <Name>
Benzenamine, 4-bromo-

> <Source>
DSSTox2DMolFile

> <Tox>
3.559

> <CAS>
106-40-1

$$$$

  CDK

  8  8  0  0  0  0  0  0  0  0999 V2000
    0.0000   -1.1545    0.0000 O   0  0  0  0  0  0  0  0  0  0  0  0
    1.3300   -1.1545    0.0000 C   0  0  0  0  0  0  0  0  0  0  0  0
    1.9950   -0.0000    0.0000 C   0  0  0  0  0  0  0  0  0  0  0  0
    1.9950   -2.3036    0.0000 C   0  0  0  0  0  0  0  0  0  0  0  0
    3.3250   -0.0000    0.0000 C   0  0  0  0  0  0  0  0  0  0  0  0
    3.3250   -2.3036    0.0000 C   0  0  0  0  0  0  0  0  0  0  0  0
    3.9900   -1.1545    0.0000 C   0  0  0  0  0  0  0  0  0  0  0  0
    5.3201   -1.1545    0.0000 C   0  0  0  0  0  0  0  0  0  0  0  0
  1  2  1  0  0  0  0 
  2  3  2  0  0  0  0 
  2  4  1  0  0  0  0 
  3  5  1  0  0  0  0 
  6  4  2  0  0  0  0 
  5  7  2  0  0  0  0 
  7  6  1  0  0  0  0 
  7  8  1  0  0  0  0 
M  END
> <Name>
Phenol, 4-methyl-

> <Source>
DSSTox2DMolFile

> <Tox>
3.666

> <CAS>
106-44-5

$$$$

  CDK

  8  8  0  0  0  0  0  0  0  0999 V2000
    0.0000   -1.1545    0.0000 O   0  0  0  0  0  0  0  0  0  0  0  0
    1.3300   -1.1545    0.0000 C   0  0  0  0  0  0  0  0  0  0  0  0
    1.9950   -0.0000    0.0000 C   0  0  0  0  0  0  0  0  0  0  0  0
    1.9950   -2.3036    0.0000 C   0  0  0  0  0  0  0  0  0  0  0  0
    3.3250   -0.0000    0.0000 C   0  0  0  0  0  0  0  0  0  0  0  0
    3.3250   -2.3036    0.0000 C   0  0  0  0  0  0  0  0  0  0  0  0
    3.9900   -1.1545    0.0000 C   0  0  0  0  0  0  0  0  0  0  0  0
    5.3201   -1.1545    0.0000 Cl  0  0  0  0  0  0  0  0  0  0  0  0
  1  2  1  0  0  0  0 
  2  3  2  0  0  0  0 
  2  4  1  0  0  0  0 
  3  5  1  0  0  0  0 
  6  4  2  0  0  0  0 
  5  7  2  0  0  0  0 
  7  6  1  0  0  0  0 
  7  8  1  0  0  0  0 
M  END
> <Name>
Phenol, 4-chloro-

> <Source>
DSSTox2DMolFile

> <Tox>
4.459

> <CAS>
106-48-9

$$$$

  CDK

  9  8  0  0  0  0  0  0  0  0999 V2000
    6.9045   -1.9954    0.0000 C   0  0  0  0  0  0  0  0  0  0  0  0
    5.7514   -1.3257    0.0000 C   0  0  0  0  0  0  0  0  0  0  0  0
    4.6053   -1.9954    0.0000 C   0  0  0  0  0  0  0  0  0  0  0  0
    4.6053   -3.3210    0.0000 O   0  0  0  0  0  0  0  0  0  0  0  0
    3.4522   -1.3257    0.0000 O   0  0  0  0  0  0  0  0  0  0  0  0
    2.2992   -1.9954    0.0000 C   0  0  0  0  0  0  0  0  0  0  0  0
    1.1530   -1.3257    0.0000 C   0  0  0  0  0  0  0  0  0  0  0  0
    0.0000   -1.9954    0.0000 C   0  0  0  0  0  0  0  0  0  0  0  0
    1.1530   -0.0000    0.0000 C   0  0  0  0  0  0  0  0  0  0  0  0
  1  2  2  0  0  0  0 
  2  3  1  0  0  0  0 
  3  4  2  0  0  0  0 
  3  5  1  0  0  0  0 
  5  6  1  0  0  0  0 
  6  7  1  0  0  0  0 
  7  8  1  0  0  0  0 
  7  9  1  0  0  0  0 
M  END
> <Name>
2-Propenoic acid, 2-methylpropyl ester

> <Source>
DSSTox2DMolFile

> <Tox>
4.786

> <CAS>
106-63-8

$$$$

  CDK

  4  3  0  0  0  0  0  0  0  0999 V2000
    0.0000   -0.0000    0.0000 C   0  0  0  0  0  0  0  0  0  0  0  0
    1.1513   -0.6638    0.0000 C   0  0  0  0  0  0  0  0  0  0  0  0
    2.3061   -0.0000    0.0000 C   0  0  0  0  0  0  0  0  0  0  0  0
    3.4575   -0.6638    0.0000 O   0  0  0  0  0  0  0  0  0  0  0  0
  1  2  2  0  0  0  0 
  2  3  1  0  0  0  0 
  3  4  2  0  0  0  0 
M  END
> <Name>
Acrylaldehyde

> <Source>
DSSTox2DMolFile

> <Tox>
6.317

> <CAS>
107-02-8

$$$$

  CDK

  4  3  0  0  0  0  0  0  0  0999 V2000
    0.0000   -0.0000    0.0000 C   0  0  0  0  0  0  0  0  0  0  0  0
    1.1513   -0.6638    0.0000 C   0  0  0  0  0  0  0  0  0  0  0  0
    2.3061   -0.0000    0.0000 C   0  0  0  0  0  0  0  0  0  0  0  0
    3.4575   -0.6638    0.0000 Cl  0  0  0  0  0  0  0  0  0  0  0  0
  1  2  2  0  0  0  0 
  2  3  1  0  0  0  0 
  3  4  1  0  0  0  0 
M  END
> <Name>
1-Propene, 3-chloro-

> <Source>
DSSTox2DMolFile

> <Tox>
3.546

> <CAS>
107-05-1

$$$$

  CDK

  4  3  0  0  0  0  0  0  0  0999 V2000
    0.0000   -0.0000    0.0000 Cl  0  0  0  0  0  0  0  0  0  0  0  0
    1.1513   -0.6638    0.0000 C   0  0  0  0  0  0  0  0  0  0  0  0
    2.3061   -0.0000    0.0000 C   0  0  0  0  0  0  0  0  0  0  0  0
    3.4575   -0.6638    0.0000 Cl  0  0  0  0  0  0  0  0  0  0  0  0
  1  2  1  0  0  0  0 
  2  3  1  0  0  0  0 
  3  4  1  0  0  0  0 
M  END
> <Name>
Ethane, 1,2-dichloro-

> <Source>
DSSTox2DMolFile

> <Tox>
2.896

> <CAS>
107-06-2

$$$$

  CDK

  4  3  0  0  0  0  0  0  0  0999 V2000
    0.0000   -0.0000    0.0000 C   0  0  0  0  0  0  0  0  0  0  0  0
    1.1513   -0.6638    0.0000 C   0  0  0  0  0  0  0  0  0  0  0  0
    2.3061   -0.0000    0.0000 C   0  0  0  0  0  0  0  0  0  0  0  0
    3.4575   -0.6638    0.0000 N   0  0  0  0  0  0  0  0  0  0  0  0
  1  2  1  0  0  0  0 
  2  3  1  0  0  0  0 
  3  4  1  0  0  0  0 
M  END
> <Name>
1-Propanamine

> <Source>
DSSTox2DMolFile

> <Tox>
2.283

> <CAS>
107-10-8

$$$$

  CDK

  4  3  0  0  0  0  0  0  0  0999 V2000
    0.0000   -0.0000    0.0000 C   0  0  0  0  0  0  0  0  0  0  0  0
    0.6652   -1.1508    0.0000 C   0  0  0  0  0  0  0  0  0  0  0  0
    1.9956   -1.1508    0.0000 C   0  0  0  0  0  0  0  0  0  0  0  0
    3.3260   -1.1508    0.0000 N   0  0  0  0  0  0  0  0  0  0  0  0
  1  2  1  0  0  0  0 
  2  3  1  0  0  0  0 
  3  4  3  0  0  0  0 
M  END
> <Name>
Propiononitrile

> <Source>
DSSTox2DMolFile

> <Tox>
1.559

> <CAS>
107-12-0

$$$$

  CDK

  4  3  0  0  0  0  0  0  0  0999 V2000
    0.0000   -0.0000    0.0000 C   0  0  0  0  0  0  0  0  0  0  0  0
    0.6652   -1.1508    0.0000 C   0  0  0  0  0  0  0  0  0  0  0  0
    1.9956   -1.1508    0.0000 C   0  0  0  0  0  0  0  0  0  0  0  0
    3.3260   -1.1508    0.0000 N   0  0  0  0  0  0  0  0  0  0  0  0
  1  2  2  0  0  0  0 
  2  3  1  0  0  0  0 
  3  4  3  0  0  0  0 
M  END
> <Name>
2-Propenenitrile

> <Source>
DSSTox2DMolFile

> <Tox>
3.569

> <CAS>
107-13-1

$$$$

  CDK

  4  3  0  0  0  0  0  0  0  0999 V2000
    0.0000   -1.1508    0.0000 N   0  0  0  0  0  0  0  0  0  0  0  0
    1.3304   -1.1508    0.0000 C   0  0  0  0  0  0  0  0  0  0  0  0
    2.6608   -1.1508    0.0000 C   0  0  0  0  0  0  0  0  0  0  0  0
    3.3260   -0.0000    0.0000 Cl  0  0  0  0  0  0  0  0  0  0  0  0
  1  2  3  0  0  0  0 
  2  3  1  0  0  0  0 
  3  4  1  0  0  0  0 
M  END
> <Name>
Acetonitrile, chloro-

> <Source>
DSSTox2DMolFile

> <Tox>
4.748

> <CAS>
107-14-2

$$$$

  CDK

  4  3  0  0  0  0  0  0  0  0999 V2000
    0.0000   -0.0000    0.0000 N   0  0  0  0  0  0  0  0  0  0  0  0
    1.1513   -0.6638    0.0000 C   0  0  0  0  0  0  0  0  0  0  0  0
    2.3061   -0.0000    0.0000 C   0  0  0  0  0  0  0  0  0  0  0  0
    3.4575   -0.6638    0.0000 N   0  0  0  0  0  0  0  0  0  0  0  0
  1  2  1  0  0  0  0 
  2  3  1  0  0  0  0 
  3  4  1  0  0  0  0 
M  END
> <Name>
1,2-Ethanediamine

> <Source>
DSSTox2DMolFile

> <Tox>
2.576

> <CAS>
107-15-3

$$$$

  CDK

  4  3  0  0  0  0  0  0  0  0999 V2000
    0.0000   -0.0000    0.0000 C   0  0  0  0  0  0  0  0  0  0  0  0
    1.1513   -0.6638    0.0000 C   0  0  0  0  0  0  0  0  0  0  0  0
    2.3061   -0.0000    0.0000 C   0  0  0  0  0  0  0  0  0  0  0  0
    3.4575   -0.6638    0.0000 O   0  0  0  0  0  0  0  0  0  0  0  0
  1  2  2  0  0  0  0 
  2  3  1  0  0  0  0 
  3  4  1  0  0  0  0 
M  END
> <Name>
2-Propen-1-ol

> <Source>
DSSTox2DMolFile

> <Tox>
5.259

> <CAS>
107-18-6

$$$$

  CDK

  4  3  0  0  0  0  0  0  0  0999 V2000
    0.6652   -1.1508    0.0000 C   0  0  0  0  0  0  0  0  0  0  0  0
    0.0000   -0.0000    0.0000 O   0  0  0  0  0  0  0  0  0  0  0  0
    1.9956   -1.1508    0.0000 C   0  0  0  0  0  0  0  0  0  0  0  0
    3.3260   -1.1508    0.0000 C   0  0  0  0  0  0  0  0  0  0  0  0
  1  2  1  0  0  0  0 
  1  3  1  0  0  0  0 
  3  4  3  0  0  0  0 
M  END
> <Name>
Propargyl alcohol

> <Source>
DSSTox2DMolFile

> <Tox>
4.564

> <CAS>
107-19-7

$$$$

  CDK

  4  3  0  0  0  0  0  0  0  0999 V2000
    1.1513   -0.6638    0.0000 C   0  0  0  0  0  0  0  0  0  0  0  0
    2.3061   -0.0000    0.0000 C   0  0  0  0  0  0  0  0  0  0  0  0
    0.0000   -0.0000    0.0000 O   0  0  0  0  0  0  0  0  0  0  0  0
    3.4575   -0.6638    0.0000 O   0  0  0  0  0  0  0  0  0  0  0  0
  1  2  1  0  0  0  0 
  1  3  1  0  0  0  0 
  2  4  1  0  0  0  0 
M  END
> <Name>
Ethylene glycol

> <Source>
DSSTox2DMolFile

> <Tox>
0.037

> <CAS>
107-21-1

$$$$

  CDK

  4  3  0  0  0  0  0  0  0  0999 V2000
    0.0000   -0.0000    0.0000 O   0  0  0  0  0  0  0  0  0  0  0  0
    1.1513   -0.6638    0.0000 C   0  0  0  0  0  0  0  0  0  0  0  0
    2.3061   -0.0000    0.0000 C   0  0  0  0  0  0  0  0  0  0  0  0
    3.4575   -0.6638    0.0000 O   0  0  0  0  0  0  0  0  0  0  0  0
  1  2  2  0  0  0  0 
  2  3  1  0  0  0  0 
  3  4  2  0  0  0  0 
M  END
> <Name>
Glyoxal, 29.2%

> <Source>
DSSTox2DMolFile

> <Tox>
2.431

> <CAS>
107-22-2

$$$$

  CDK

  4  3  0  0  0  0  0  0  0  0999 V2000
    0.0000   -0.0000    0.0000 C   0  0  0  0  0  0  0  0  0  0  0  0
    1.1513   -0.6638    0.0000 C   0  0  0  0  0  0  0  0  0  0  0  0
    2.3061   -0.0000    0.0000 N   0  0  0  0  0  0  0  0  0  0  0  0
    3.4575   -0.6638    0.0000 O   0  0  0  0  0  0  0  0  0  0  0  0
  1  2  1  0  0  0  0 
  2  3  2  0  0  0  0 
  3  4  1  0  0  0  0 
M  END
> <Name>
Acetaldehyde, oxime

> <Source>
DSSTox2DMolFile

> <Tox>
2.891

> <CAS>
107-29-9

$$$$

  CDK

  8  7  0  0  0  0  0  0  0  0999 V2000
    3.3874   -0.1694    0.0000 C   0  0  0  0  0  0  0  0  0  0  0  0
    3.2950   -1.2728    0.0000 C   0  0  0  0  0  0  0  0  0  0  0  0
    2.2069   -1.8990    0.0000 C   0  0  0  0  0  0  0  0  0  0  0  0
    5.1324   -0.9803    0.0000 C   0  0  0  0  0  0  0  0  0  0  0  0
    3.9366   -2.3763    0.0000 O   0  0  0  0  0  0  0  0  0  0  0  0
    1.1035   -1.2728    0.0000 C   0  0  0  0  0  0  0  0  0  0  0  0
    0.0000   -1.8990    0.0000 O   0  0  0  0  0  0  0  0  0  0  0  0
    1.1035   -0.0000    0.0000 C   0  0  0  0  0  0  0  0  0  0  0  0
  1  2  1  0  0  0  0 
  2  3  1  0  0  0  0 
  2  4  1  0  0  0  0 
  2  5  1  0  0  0  0 
  3  6  1  0  0  0  0 
  6  7  1  0  0  0  0 
  6  8  1  0  0  0  0 
M  END
> <Name>
2,4-Pentanediol, 2-methyl-

> <Source>
DSSTox2DMolFile

> <Tox>
1.043

> <CAS>
107-41-5

$$$$

  CDK

  9  8  0  0  0  0  0  0  0  0999 V2000
    0.0000   -1.7391    0.0000 C   0  0  0  0  0  0  0  0  0  0  0  0
    1.1091   -1.1091    0.0000 C   0  0  0  0  0  0  0  0  0  0  0  0
    0.4614   -0.0000    0.0000 C   0  0  0  0  0  0  0  0  0  0  0  0
    1.0160   -2.5732    0.0000 C   0  0  0  0  0  0  0  0  0  0  0  0
    2.2183   -0.4614    0.0000 C   0  0  0  0  0  0  0  0  0  0  0  0
    3.3274   -1.1091    0.0000 C   0  0  0  0  0  0  0  0  0  0  0  0
    3.9574   -0.0000    0.0000 C   0  0  0  0  0  0  0  0  0  0  0  0
    4.4365   -1.7391    0.0000 C   0  0  0  0  0  0  0  0  0  0  0  0
    3.0346   -2.5732    0.0000 N   0  0  0  0  0  0  0  0  0  0  0  0
  1  2  1  0  0  0  0 
  2  3  1  0  0  0  0 
  2  4  1  0  0  0  0 
  2  5  1  0  0  0  0 
  5  6  1  0  0  0  0 
  6  7  1  0  0  0  0 
  6  8  1  0  0  0  0 
  6  9  1  0  0  0  0 
M  END
> <Name>
Butylamine, 1,1,3,3-tetramethyl- (6CI,7CI,8CI)

> <Source>
DSSTox2DMolFile

> <Tox>
3.720

> <CAS>
107-45-9

$$$$

  CDK

  9  8  0  0  0  0  0  0  0  0999 V2000
    0.0000   -1.7377    0.0000 C   0  0  0  0  0  0  0  0  0  0  0  0
    1.1082   -1.1082    0.0000 C   0  0  0  0  0  0  0  0  0  0  0  0
    0.4610   -0.0000    0.0000 C   0  0  0  0  0  0  0  0  0  0  0  0
    1.3831   -2.5844    0.0000 C   0  0  0  0  0  0  0  0  0  0  0  0
    2.2165   -0.4610    0.0000 S   0  0  0  0  0  0  0  0  0  0  0  0
    3.3247   -1.1082    0.0000 C   0  0  0  0  0  0  0  0  0  0  0  0
    3.9542   -0.0000    0.0000 C   0  0  0  0  0  0  0  0  0  0  0  0
    4.4329   -1.7377    0.0000 C   0  0  0  0  0  0  0  0  0  0  0  0
    3.4000   -2.5711    0.0000 C   0  0  0  0  0  0  0  0  0  0  0  0
  1  2  1  0  0  0  0 
  2  3  1  0  0  0  0 
  2  4  1  0  0  0  0 
  2  5  1  0  0  0  0 
  5  6  1  0  0  0  0 
  6  7  1  0  0  0  0 
  6  8  1  0  0  0  0 
  6  9  1  0  0  0  0 
M  END
> <Name>
tert-Butyl sulfide (8CI)

> <Source>
DSSTox2DMolFile

> <Tox>
3.701

> <CAS>
107-47-1

$$$$

  CDK

 17 16  0  0  0  0  0  0  0  0999 V2000
    2.7658   -3.3097    0.0000 O   0  0  0  0  0  0  0  0  0  0  0  0
    1.3265   -3.3097    0.0000 P   0  0  0  0  0  0  0  0  0  0  0  0
    4.1056   -3.3097    0.0000 P   0  0  0  0  0  0  0  0  0  0  0  0
    0.0000   -3.3097    0.0000 O   0  0  0  0  0  0  0  0  0  0  0  0
    1.3265   -1.9832    0.0000 O   0  0  0  0  0  0  0  0  0  0  0  0
    1.3265   -4.6363    0.0000 O   0  0  0  0  0  0  0  0  0  0  0  0
    5.4322   -3.3097    0.0000 O   0  0  0  0  0  0  0  0  0  0  0  0
    4.1056   -4.6363    0.0000 O   0  0  0  0  0  0  0  0  0  0  0  0
    4.1056   -1.9832    0.0000 O   0  0  0  0  0  0  0  0  0  0  0  0
    0.1791   -1.3265    0.0000 C   0  0  0  0  0  0  0  0  0  0  0  0
    2.4740   -5.2929    0.0000 C   0  0  0  0  0  0  0  0  0  0  0  0
    5.2398   -5.2730    0.0000 C   0  0  0  0  0  0  0  0  0  0  0  0
    2.9715   -1.3265    0.0000 C   0  0  0  0  0  0  0  0  0  0  0  0
    0.1791   -0.0000    0.0000 C   0  0  0  0  0  0  0  0  0  0  0  0
    2.4740   -6.6327    0.0000 C   0  0  0  0  0  0  0  0  0  0  0  0
    5.2398   -6.5995    0.0000 C   0  0  0  0  0  0  0  0  0  0  0  0
    2.9715   -0.0332    0.0000 C   0  0  0  0  0  0  0  0  0  0  0  0
  1  2  1  0  0  0  0 
  1  3  1  0  0  0  0 
  2  4  2  0  0  0  0 
  2  5  1  0  0  0  0 
  2  6  1  0  0  0  0 
  3  7  2  0  0  0  0 
  3  8  1  0  0  0  0 
  3  9  1  0  0  0  0 
  5 10  1  0  0  0  0 
  6 11  1  0  0  0  0 
  8 12  1  0  0  0  0 
  9 13  1  0  0  0  0 
 10 14  1  0  0  0  0 
 11 15  1  0  0  0  0 
 12 16  1  0  0  0  0 
 13 17  1  0  0  0  0 
M  END
> <Name>
Pyrophosphoric acid, tetraethyl ester

> <Source>
DSSTox2DMolFile

> <Tox>
5.347

> <CAS>
107-49-3

$$$$

  CDK

  6  5  0  0  0  0  0  0  0  0999 V2000
    0.0000   -0.0000    0.0000 C   0  0  0  0  0  0  0  0  0  0  0  0
    0.0000   -1.3307    0.0000 C   0  0  0  0  0  0  0  0  0  0  0  0
    1.1509   -1.9943    0.0000 C   0  0  0  0  0  0  0  0  0  0  0  0
    2.3053   -1.3307    0.0000 C   0  0  0  0  0  0  0  0  0  0  0  0
    2.3053   -0.0000    0.0000 O   0  0  0  0  0  0  0  0  0  0  0  0
    3.4563   -1.9943    0.0000 C   0  0  0  0  0  0  0  0  0  0  0  0
  1  2  1  0  0  0  0 
  2  3  1  0  0  0  0 
  3  4  1  0  0  0  0 
  4  5  2  0  0  0  0 
  4  6  1  0  0  0  0 
M  END
> <Name>
2-Pentanone

> <Source>
DSSTox2DMolFile

> <Tox>
1.842

> <CAS>
107-87-9

$$$$

  CDK

  6  5  0  0  0  0  0  0  0  0999 V2000
    4.6084   -1.9954    0.0000 C   0  0  0  0  0  0  0  0  0  0  0  0
    3.4563   -1.3318    0.0000 C   0  0  0  0  0  0  0  0  0  0  0  0
    3.4563   -0.0000    0.0000 O   0  0  0  0  0  0  0  0  0  0  0  0
    2.3042   -1.9954    0.0000 O   0  0  0  0  0  0  0  0  0  0  0  0
    1.1521   -1.3318    0.0000 C   0  0  0  0  0  0  0  0  0  0  0  0
    0.0000   -1.9954    0.0000 C   0  0  0  0  0  0  0  0  0  0  0  0
  1  2  1  0  0  0  0 
  2  3  2  0  0  0  0 
  2  4  1  0  0  0  0 
  4  5  1  0  0  0  0 
  5  6  2  0  0  0  0 
M  END
> <Name>
Acetic acid ethenyl ester

> <Source>
DSSTox2DMolFile

> <Tox>
3.573

> <CAS>
108-05-4

$$$$

  CDK

  7  6  0  0  0  0  0  0  0  0999 V2000
    4.6073   -1.9950    0.0000 C   0  0  0  0  0  0  0  0  0  0  0  0
    3.4555   -1.3315    0.0000 C   0  0  0  0  0  0  0  0  0  0  0  0
    3.4555   -0.0000    0.0000 O   0  0  0  0  0  0  0  0  0  0  0  0
    2.3037   -1.9950    0.0000 C   0  0  0  0  0  0  0  0  0  0  0  0
    1.1518   -1.3315    0.0000 C   0  0  0  0  0  0  0  0  0  0  0  0
    0.0000   -1.9950    0.0000 C   0  0  0  0  0  0  0  0  0  0  0  0
    1.1518   -0.0000    0.0000 C   0  0  0  0  0  0  0  0  0  0  0  0
  1  2  1  0  0  0  0 
  2  3  2  0  0  0  0 
  2  4  1  0  0  0  0 
  4  5  1  0  0  0  0 
  5  6  1  0  0  0  0 
  5  7  1  0  0  0  0 
M  END
> <Name>
2-Pentanone, 4-methyl-

> <Source>
DSSTox2DMolFile

> <Tox>
2.271

> <CAS>
108-10-1

$$$$

  CDK

  7  6  0  0  0  0  0  0  0  0999 V2000
    3.4555   -0.0000    0.0000 C   0  0  0  0  0  0  0  0  0  0  0  0
    3.4555   -1.3315    0.0000 C   0  0  0  0  0  0  0  0  0  0  0  0
    4.6073   -1.9950    0.0000 C   0  0  0  0  0  0  0  0  0  0  0  0
    2.3037   -1.9950    0.0000 O   0  0  0  0  0  0  0  0  0  0  0  0
    1.1518   -1.3315    0.0000 C   0  0  0  0  0  0  0  0  0  0  0  0
    0.0000   -1.9950    0.0000 C   0  0  0  0  0  0  0  0  0  0  0  0
    1.1518   -0.0000    0.0000 C   0  0  0  0  0  0  0  0  0  0  0  0
  1  2  1  0  0  0  0 
  2  3  1  0  0  0  0 
  2  4  1  0  0  0  0 
  4  5  1  0  0  0  0 
  5  6  1  0  0  0  0 
  5  7  1  0  0  0  0 
M  END
> <Name>
Propane, 2,2'-oxybis-

> <Source>
DSSTox2DMolFile

> <Tox>
2.114

> <CAS>
108-20-3

$$$$

  CDK

  8  8  0  0  0  0  0  0  0  0999 V2000
    0.0000   -2.6588    0.0000 C   0  0  0  0  0  0  0  0  0  0  0  0
    1.1520   -1.9953    0.0000 C   0  0  0  0  0  0  0  0  0  0  0  0
    1.1520   -0.6635    0.0000 C   0  0  0  0  0  0  0  0  0  0  0  0
    2.3040   -2.6588    0.0000 C   0  0  0  0  0  0  0  0  0  0  0  0
    2.3040   -0.0000    0.0000 C   0  0  0  0  0  0  0  0  0  0  0  0
    3.4560   -1.9953    0.0000 C   0  0  0  0  0  0  0  0  0  0  0  0
    3.4560   -0.6635    0.0000 C   0  0  0  0  0  0  0  0  0  0  0  0
    4.6080   -2.6588    0.0000 C   0  0  0  0  0  0  0  0  0  0  0  0
  1  2  1  0  0  0  0 
  2  3  2  0  0  0  0 
  2  4  1  0  0  0  0 
  3  5  1  0  0  0  0 
  6  4  2  0  0  0  0 
  5  7  2  0  0  0  0 
  7  6  1  0  0  0  0 
  6  8  1  0  0  0  0 
M  END
> <Name>
Benzene, 1,3-dimethyl-

> <Source>
DSSTox2DMolFile

> <Tox>
3.822

> <CAS>
108-38-3

$$$$

  CDK

  8  8  0  0  0  0  0  0  0  0999 V2000
    2.2879   -1.9949    0.0000 C   0  0  0  0  0  0  0  0  0  0  0  0
    1.1319   -1.3326    0.0000 C   0  0  0  0  0  0  0  0  0  0  0  0
    2.2879   -3.3275    0.0000 C   0  0  0  0  0  0  0  0  0  0  0  0
    1.1319   -0.0000    0.0000 O   0  0  0  0  0  0  0  0  0  0  0  0
    0.0000   -1.9949    0.0000 C   0  0  0  0  0  0  0  0  0  0  0  0
    1.1319   -3.9898    0.0000 C   0  0  0  0  0  0  0  0  0  0  0  0
    3.4559   -4.0139    0.0000 C   0  0  0  0  0  0  0  0  0  0  0  0
    0.0000   -3.3275    0.0000 C   0  0  0  0  0  0  0  0  0  0  0  0
  1  2  1  0  0  0  0 
  1  3  2  0  0  0  0 
  2  4  1  0  0  0  0 
  2  5  2  0  0  0  0 
  3  6  1  0  0  0  0 
  3  7  1  0  0  0  0 
  8  5  1  0  0  0  0 
  8  6  2  0  0  0  0 
M  END
> <Name>
Phenol, 3-methyl-

> <Source>
DSSTox2DMolFile

> <Tox>
3.287

> <CAS>
108-39-4

$$$$

  CDK

  8  8  0  0  0  0  0  0  0  0999 V2000
    4.6080   -2.6588    0.0000 O   0  0  0  0  0  0  0  0  0  0  0  0
    3.4560   -1.9953    0.0000 C   0  0  0  0  0  0  0  0  0  0  0  0
    2.3040   -2.6588    0.0000 C   0  0  0  0  0  0  0  0  0  0  0  0
    3.4560   -0.6635    0.0000 C   0  0  0  0  0  0  0  0  0  0  0  0
    1.1520   -1.9953    0.0000 C   0  0  0  0  0  0  0  0  0  0  0  0
    2.3040   -0.0000    0.0000 C   0  0  0  0  0  0  0  0  0  0  0  0
    1.1520   -0.6635    0.0000 C   0  0  0  0  0  0  0  0  0  0  0  0
    0.0000   -2.6588    0.0000 O   0  0  0  0  0  0  0  0  0  0  0  0
  1  2  1  0  0  0  0 
  2  3  2  0  0  0  0 
  2  4  1  0  0  0  0 
  3  5  1  0  0  0  0 
  6  4  2  0  0  0  0 
  5  7  2  0  0  0  0 
  5  8  1  0  0  0  0 
  7  6  1  0  0  0  0 
M  END
> <Name>
1,3-Benzenediol

> <Source>
DSSTox2DMolFile

> <Tox>
3.302

> <CAS>
108-46-3

$$$$

  CDK

  7  7  0  0  0  0  0  0  0  0999 V2000
    1.3292   -1.1496    0.0000 C   0  0  0  0  0  0  0  0  0  0  0  0
    1.9958   -0.0000    0.0000 C   0  0  0  0  0  0  0  0  0  0  0  0
    1.9958   -2.3032    0.0000 C   0  0  0  0  0  0  0  0  0  0  0  0
    0.0000   -1.1496    0.0000 Br  0  0  0  0  0  0  0  0  0  0  0  0
    3.3250   -0.0000    0.0000 C   0  0  0  0  0  0  0  0  0  0  0  0
    3.3250   -2.3032    0.0000 C   0  0  0  0  0  0  0  0  0  0  0  0
    3.9916   -1.1496    0.0000 C   0  0  0  0  0  0  0  0  0  0  0  0
  1  2  2  0  0  0  0 
  1  3  1  0  0  0  0 
  1  4  1  0  0  0  0 
  2  5  1  0  0  0  0 
  6  3  2  0  0  0  0 
  5  7  2  0  0  0  0 
  7  6  1  0  0  0  0 
M  END
> <Name>
Benzene, bromo-

> <Source>
DSSTox2DMolFile

> <Tox>
4.448

> <CAS>
108-86-1

$$$$

  CDK

  7  7  0  0  0  0  0  0  0  0999 V2000
    0.0000   -1.1527    0.0000 C   0  0  0  0  0  0  0  0  0  0  0  0
    1.3282   -1.1527    0.0000 C   0  0  0  0  0  0  0  0  0  0  0  0
    2.0023   -0.0000    0.0000 C   0  0  0  0  0  0  0  0  0  0  0  0
    2.0023   -2.3054    0.0000 C   0  0  0  0  0  0  0  0  0  0  0  0
    3.3305   -0.0000    0.0000 C   0  0  0  0  0  0  0  0  0  0  0  0
    3.3305   -2.3054    0.0000 C   0  0  0  0  0  0  0  0  0  0  0  0
    3.9886   -1.1527    0.0000 C   0  0  0  0  0  0  0  0  0  0  0  0
  1  2  1  0  0  0  0 
  2  3  2  0  0  0  0 
  2  4  1  0  0  0  0 
  3  5  1  0  0  0  0 
  6  4  2  0  0  0  0 
  5  7  2  0  0  0  0 
  7  6  1  0  0  0  0 
M  END
> <Name>
Benzene, methyl-

> <Source>
DSSTox2DMolFile

> <Tox>
3.430

> <CAS>
108-88-3

$$$$

  CDK

  7  7  0  0  0  0  0  0  0  0999 V2000
    3.9916   -1.1496    0.0000 N   0  0  0  0  0  0  0  0  0  0  0  0
    3.3250   -2.3032    0.0000 C   0  0  0  0  0  0  0  0  0  0  0  0
    3.3250   -0.0000    0.0000 C   0  0  0  0  0  0  0  0  0  0  0  0
    1.9958   -2.3032    0.0000 C   0  0  0  0  0  0  0  0  0  0  0  0
    1.9958   -0.0000    0.0000 C   0  0  0  0  0  0  0  0  0  0  0  0
    1.3292   -1.1496    0.0000 C   0  0  0  0  0  0  0  0  0  0  0  0
    0.0000   -1.1496    0.0000 C   0  0  0  0  0  0  0  0  0  0  0  0
  1  2  2  0  0  0  0 
  1  3  1  0  0  0  0 
  2  4  1  0  0  0  0 
  5  3  2  0  0  0  0 
  4  6  2  0  0  0  0 
  6  5  1  0  0  0  0 
  6  7  1  0  0  0  0 
M  END
> <Name>
Pyridine, 4-methyl-

> <Source>
DSSTox2DMolFile

> <Tox>
2.364

> <CAS>
108-89-4

$$$$

  CDK

  7  7  0  0  0  0  0  0  0  0999 V2000
    0.0000   -1.1496    0.0000 Cl  0  0  0  0  0  0  0  0  0  0  0  0
    1.3292   -1.1496    0.0000 C   0  0  0  0  0  0  0  0  0  0  0  0
    1.9958   -0.0000    0.0000 C   0  0  0  0  0  0  0  0  0  0  0  0
    1.9958   -2.3032    0.0000 C   0  0  0  0  0  0  0  0  0  0  0  0
    3.3250   -0.0000    0.0000 C   0  0  0  0  0  0  0  0  0  0  0  0
    3.3250   -2.3032    0.0000 C   0  0  0  0  0  0  0  0  0  0  0  0
    3.9916   -1.1496    0.0000 C   0  0  0  0  0  0  0  0  0  0  0  0
  1  2  1  0  0  0  0 
  2  3  2  0  0  0  0 
  2  4  1  0  0  0  0 
  3  5  1  0  0  0  0 
  6  4  2  0  0  0  0 
  5  7  2  0  0  0  0 
  7  6  1  0  0  0  0 
M  END
> <Name>
Benzene, chloro-

> <Source>
DSSTox2DMolFile

> <Tox>
3.645

> <CAS>
108-90-7

$$$$

  CDK

  7  7  0  0  0  0  0  0  0  0999 V2000
    0.0000   -1.1496    0.0000 O   0  0  0  0  0  0  0  0  0  0  0  0
    1.3292   -1.1496    0.0000 C   0  0  0  0  0  0  0  0  0  0  0  0
    1.9958   -0.0000    0.0000 C   0  0  0  0  0  0  0  0  0  0  0  0
    1.9958   -2.3032    0.0000 C   0  0  0  0  0  0  0  0  0  0  0  0
    3.3250   -0.0000    0.0000 C   0  0  0  0  0  0  0  0  0  0  0  0
    3.3250   -2.3032    0.0000 C   0  0  0  0  0  0  0  0  0  0  0  0
    3.9916   -1.1496    0.0000 C   0  0  0  0  0  0  0  0  0  0  0  0
  1  2  2  0  0  0  0 
  2  3  1  0  0  0  0 
  2  4  1  0  0  0  0 
  3  5  1  0  0  0  0 
  6  4  1  0  0  0  0 
  5  7  1  0  0  0  0 
  7  6  1  0  0  0  0 
M  END
> <Name>
Cyclohexanone

> <Source>
DSSTox2DMolFile

> <Tox>
2.193

> <CAS>
108-94-1

$$$$

  CDK

  7  7  0  0  0  0  0  0  0  0999 V2000
    0.0000   -1.1496    0.0000 O   0  0  0  0  0  0  0  0  0  0  0  0
    1.3292   -1.1496    0.0000 C   0  0  0  0  0  0  0  0  0  0  0  0
    1.9958   -0.0000    0.0000 C   0  0  0  0  0  0  0  0  0  0  0  0
    1.9958   -2.3032    0.0000 C   0  0  0  0  0  0  0  0  0  0  0  0
    3.3250   -0.0000    0.0000 C   0  0  0  0  0  0  0  0  0  0  0  0
    3.3250   -2.3032    0.0000 C   0  0  0  0  0  0  0  0  0  0  0  0
    3.9916   -1.1496    0.0000 C   0  0  0  0  0  0  0  0  0  0  0  0
  1  2  1  0  0  0  0 
  2  3  2  0  0  0  0 
  2  4  1  0  0  0  0 
  3  5  1  0  0  0  0 
  6  4  2  0  0  0  0 
  5  7  2  0  0  0  0 
  7  6  1  0  0  0  0 
M  END
> <Name>
Phenol, pure

> <Source>
DSSTox2DMolFile

> <Tox>
3.495

> <CAS>
108-95-2

$$$$

  CDK

  7  7  0  0  0  0  0  0  0  0999 V2000
    3.3250   -2.3032    0.0000 N   0  0  0  0  0  0  0  0  0  0  0  0
    1.9958   -2.3032    0.0000 C   0  0  0  0  0  0  0  0  0  0  0  0
    3.9916   -1.1496    0.0000 C   0  0  0  0  0  0  0  0  0  0  0  0
    1.3292   -1.1496    0.0000 C   0  0  0  0  0  0  0  0  0  0  0  0
    3.3250   -0.0000    0.0000 C   0  0  0  0  0  0  0  0  0  0  0  0
    0.0000   -1.1496    0.0000 C   0  0  0  0  0  0  0  0  0  0  0  0
    1.9958   -0.0000    0.0000 C   0  0  0  0  0  0  0  0  0  0  0  0
  1  2  2  0  0  0  0 
  1  3  1  0  0  0  0 
  2  4  1  0  0  0  0 
  5  3  2  0  0  0  0 
  4  6  1  0  0  0  0 
  4  7  2  0  0  0  0 
  7  5  1  0  0  0  0 
M  END
> <Name>
Pyridine, 3-methyl-

> <Source>
DSSTox2DMolFile

> <Tox>
2.811

> <CAS>
108-99-6

$$$$

  CDK

  7  7  0  0  0  0  0  0  0  0999 V2000
    0.0000   -1.1496    0.0000 C   0  0  0  0  0  0  0  0  0  0  0  0
    1.3292   -1.1496    0.0000 N   0  0  0  0  0  0  0  0  0  0  0  0
    1.9958   -0.0000    0.0000 C   0  0  0  0  0  0  0  0  0  0  0  0
    1.9958   -2.3032    0.0000 C   0  0  0  0  0  0  0  0  0  0  0  0
    3.3250   -0.0000    0.0000 C   0  0  0  0  0  0  0  0  0  0  0  0
    3.3250   -2.3032    0.0000 C   0  0  0  0  0  0  0  0  0  0  0  0
    3.9916   -1.1496    0.0000 N   0  0  0  0  0  0  0  0  0  0  0  0
  1  2  1  0  0  0  0 
  2  3  1  0  0  0  0 
  2  4  1  0  0  0  0 
  3  5  1  0  0  0  0 
  6  4  1  0  0  0  0 
  5  7  1  0  0  0  0 
  7  6  1  0  0  0  0 
M  END
> <Name>
Piperazine, 1-methyl-

> <Source>
DSSTox2DMolFile

> <Tox>
1.639

> <CAS>
109-01-3

$$$$

  CDK

  7  7  0  0  0  0  0  0  0  0999 V2000
    1.9958   -2.3032    0.0000 N   0  0  0  0  0  0  0  0  0  0  0  0
    1.3292   -1.1496    0.0000 C   0  0  0  0  0  0  0  0  0  0  0  0
    3.3250   -2.3032    0.0000 C   0  0  0  0  0  0  0  0  0  0  0  0
    0.0000   -1.1496    0.0000 C   0  0  0  0  0  0  0  0  0  0  0  0
    1.9958   -0.0000    0.0000 C   0  0  0  0  0  0  0  0  0  0  0  0
    3.9916   -1.1496    0.0000 C   0  0  0  0  0  0  0  0  0  0  0  0
    3.3250   -0.0000    0.0000 C   0  0  0  0  0  0  0  0  0  0  0  0
  1  2  2  0  0  0  0 
  1  3  1  0  0  0  0 
  2  4  1  0  0  0  0 
  2  5  1  0  0  0  0 
  6  3  2  0  0  0  0 
  5  7  2  0  0  0  0 
  7  6  1  0  0  0  0 
M  END
> <Name>
Pyridine, 2-methyl-

> <Source>
DSSTox2DMolFile

> <Tox>
2.016

> <CAS>
109-06-8

$$$$

  CDK

  7  7  0  0  0  0  0  0  0  0999 V2000
    3.3250   -2.3032    0.0000 N   0  0  0  0  0  0  0  0  0  0  0  0
    1.9958   -2.3032    0.0000 C   0  0  0  0  0  0  0  0  0  0  0  0
    3.9916   -1.1496    0.0000 C   0  0  0  0  0  0  0  0  0  0  0  0
    1.3292   -1.1496    0.0000 C   0  0  0  0  0  0  0  0  0  0  0  0
    3.3250   -0.0000    0.0000 C   0  0  0  0  0  0  0  0  0  0  0  0
    0.0000   -1.1496    0.0000 C   0  0  0  0  0  0  0  0  0  0  0  0
    1.9958   -0.0000    0.0000 N   0  0  0  0  0  0  0  0  0  0  0  0
  1  2  1  0  0  0  0 
  1  3  1  0  0  0  0 
  2  4  1  0  0  0  0 
  5  3  1  0  0  0  0 
  4  6  1  0  0  0  0 
  4  7  1  0  0  0  0 
  7  5  1  0  0  0  0 
M  END
> <Name>
Piperazine, 2-methyl-

> <Source>
DSSTox2DMolFile

> <Tox>
1.650

> <CAS>
109-07-9

$$$$

  CDK

 10  9  0  0  0  0  0  0  0  0999 V2000
    1.0814    0.3824   -0.0014 C   0  0  0  0  0  0  0  0  0  0  0  0
    2.2422   -0.5851   -0.0024 C   0  0  0  0  0  0  0  0  0  0  0  0
    1.0990    1.5973   -0.0011 O   0  0  0  0  0  0  0  0  0  0  0  0
   -0.1221   -0.2648   -0.0011 O   0  0  0  0  0  0  0  0  0  0  0  0
    3.5898    0.1180    0.0038 C   0  0  0  0  0  0  0  0  0  0  0  0
   -1.3166    0.5177   -0.0008 C   0  0  0  0  0  0  0  0  0  0  0  0
    4.7224   -0.8841    0.0010 C   0  0  0  0  0  0  0  0  0  0  0  0
   -2.4781   -0.4721   -0.0015 C   0  0  0  0  0  0  0  0  0  0  0  0
   -3.8032    0.2733    0.0029 C   0  0  0  0  0  0  0  0  0  0  0  0
   -4.9732   -0.6843    0.0008 C   0  0  0  0  0  0  0  0  0  0  0  0
  1  2  1  0  0  0  0 
  1  3  2  0  0  0  0 
  1  4  1  0  0  0  0 
  2  5  1  0  0  0  0 
  4  6  1  0  0  0  0 
  5  7  1  0  0  0  0 
  6  8  1  0  0  0  0 
  8  9  1  0  0  0  0 
  9 10  1  0  0  0  0 
M  END
> <Name>
Butanoic acid, butyl ester

> <Source>
DougDB3DMolFile

> <Tox>
4.095

> <CAS>
109-21-7

$$$$

  CDK

  7  6  0  0  0  0  0  0  0  0999 V2000
    5.7637   -1.9942    0.0000 O   0  0  0  0  0  0  0  0  0  0  0  0
    4.6110   -1.3314    0.0000 C   0  0  0  0  0  0  0  0  0  0  0  0
    3.4582   -1.9942    0.0000 C   0  0  0  0  0  0  0  0  0  0  0  0
    4.6110   -0.0000    0.0000 O   0  0  0  0  0  0  0  0  0  0  0  0
    2.3055   -1.3314    0.0000 C   0  0  0  0  0  0  0  0  0  0  0  0
    1.1527   -1.9942    0.0000 C   0  0  0  0  0  0  0  0  0  0  0  0
    0.0000   -1.3314    0.0000 C   0  0  0  0  0  0  0  0  0  0  0  0
  1  2  1  0  0  0  0 
  2  3  1  0  0  0  0 
  2  4  2  0  0  0  0 
  3  5  1  0  0  0  0 
  5  6  1  0  0  0  0 
  6  7  1  0  0  0  0 
M  END
> <Name>
Pentanoic acid

> <Source>
DSSTox2DMolFile

> <Tox>
3.123

> <CAS>
109-52-4

$$$$

  CDK

  7  6  0  0  0  0  0  0  0  0999 V2000
    5.7637   -1.9942    0.0000 C   0  0  0  0  0  0  0  0  0  0  0  0
    4.6110   -1.3314    0.0000 C   0  0  0  0  0  0  0  0  0  0  0  0
    4.6110   -0.0000    0.0000 O   0  0  0  0  0  0  0  0  0  0  0  0
    3.4582   -1.9942    0.0000 O   0  0  0  0  0  0  0  0  0  0  0  0
    2.3055   -1.3314    0.0000 C   0  0  0  0  0  0  0  0  0  0  0  0
    1.1527   -1.9942    0.0000 C   0  0  0  0  0  0  0  0  0  0  0  0
    0.0000   -1.3314    0.0000 C   0  0  0  0  0  0  0  0  0  0  0  0
  1  2  1  0  0  0  0 
  2  3  2  0  0  0  0 
  2  4  1  0  0  0  0 
  4  5  1  0  0  0  0 
  5  6  1  0  0  0  0 
  6  7  1  0  0  0  0 
M  END
> <Name>
Acetic acid, propyl ester

> <Source>
DSSTox2DMolFile

> <Tox>
3.231

> <CAS>
109-60-4

$$$$

  CDK

  5  4  0  0  0  0  0  0  0  0999 V2000
    0.0000   -0.6638    0.0000 Br  0  0  0  0  0  0  0  0  0  0  0  0
    1.1525   -0.0000    0.0000 C   0  0  0  0  0  0  0  0  0  0  0  0
    2.3050   -0.6638    0.0000 C   0  0  0  0  0  0  0  0  0  0  0  0
    3.4575   -0.0000    0.0000 C   0  0  0  0  0  0  0  0  0  0  0  0
    4.6099   -0.6638    0.0000 Br  0  0  0  0  0  0  0  0  0  0  0  0
  1  2  1  0  0  0  0 
  2  3  1  0  0  0  0 
  3  4  1  0  0  0  0 
  4  5  1  0  0  0  0 
M  END
> <Name>
Propane, 1,3-dibromo-

> <Source>
DSSTox2DMolFile

> <Tox>
5.052

> <CAS>
109-64-8

$$$$

  CDK

  5  4  0  0  0  0  0  0  0  0999 V2000
    0.0000   -0.6638    0.0000 Br  0  0  0  0  0  0  0  0  0  0  0  0
    1.1525   -0.0000    0.0000 C   0  0  0  0  0  0  0  0  0  0  0  0
    2.3050   -0.6638    0.0000 C   0  0  0  0  0  0  0  0  0  0  0  0
    3.4575   -0.0000    0.0000 C   0  0  0  0  0  0  0  0  0  0  0  0
    4.6099   -0.6638    0.0000 C   0  0  0  0  0  0  0  0  0  0  0  0
  1  2  1  0  0  0  0 
  2  3  1  0  0  0  0 
  3  4  1  0  0  0  0 
  4  5  1  0  0  0  0 
M  END
> <Name>
Butane, 1-bromo-

> <Source>
DSSTox2DMolFile

> <Tox>
3.572

> <CAS>
109-65-9

$$$$

  CDK

  5  4  0  0  0  0  0  0  0  0999 V2000
    0.0000   -0.6638    0.0000 C   0  0  0  0  0  0  0  0  0  0  0  0
    1.1525   -0.0000    0.0000 C   0  0  0  0  0  0  0  0  0  0  0  0
    2.3050   -0.6638    0.0000 C   0  0  0  0  0  0  0  0  0  0  0  0
    3.4575   -0.0000    0.0000 C   0  0  0  0  0  0  0  0  0  0  0  0
    4.6099   -0.6638    0.0000 N   0  0  0  0  0  0  0  0  0  0  0  0
  1  2  1  0  0  0  0 
  2  3  1  0  0  0  0 
  3  4  1  0  0  0  0 
  4  5  1  0  0  0  0 
M  END
> <Name>
1-Butanamine

> <Source>
DSSTox2DMolFile

> <Tox>
2.436

> <CAS>
109-73-9

$$$$

  CDK

  5  4  0  0  0  0  0  0  0  0999 V2000
    4.6568   -0.0000    0.0000 C   0  0  0  0  0  0  0  0  0  0  0  0
    3.3250   -0.0000    0.0000 C   0  0  0  0  0  0  0  0  0  0  0  0
    2.6590   -1.1502    0.0000 C   0  0  0  0  0  0  0  0  0  0  0  0
    1.3319   -1.1502    0.0000 C   0  0  0  0  0  0  0  0  0  0  0  0
    0.0000   -1.1502    0.0000 N   0  0  0  0  0  0  0  0  0  0  0  0
  1  2  2  0  0  0  0 
  2  3  1  0  0  0  0 
  3  4  1  0  0  0  0 
  4  5  3  0  0  0  0 
M  END
> <Name>
3-Butenenitrile

> <Source>
DSSTox2DMolFile

> <Tox>
2.567

> <CAS>
109-75-1

$$$$

  CDK

  5  4  0  0  0  0  0  0  0  0999 V2000
    0.0000   -0.0000    0.0000 N   0  0  0  0  0  0  0  0  0  0  0  0
    1.1515   -0.6679    0.0000 C   0  0  0  0  0  0  0  0  0  0  0  0
    2.3030   -1.3311    0.0000 C   0  0  0  0  0  0  0  0  0  0  0  0
    3.4545   -0.6679    0.0000 C   0  0  0  0  0  0  0  0  0  0  0  0
    4.6060   -0.0000    0.0000 N   0  0  0  0  0  0  0  0  0  0  0  0
  1  2  3  0  0  0  0 
  2  3  1  0  0  0  0 
  3  4  1  0  0  0  0 
  4  5  3  0  0  0  0 
M  END
> <Name>
Malonic dinitrile

> <Source>
DSSTox2DMolFile

> <Tox>
5.072

> <CAS>
109-77-3

$$$$

  CDK

  5  4  0  0  0  0  0  0  0  0999 V2000
    0.0000   -0.6638    0.0000 C   0  0  0  0  0  0  0  0  0  0  0  0
    1.1525   -0.0000    0.0000 O   0  0  0  0  0  0  0  0  0  0  0  0
    2.3050   -0.6638    0.0000 C   0  0  0  0  0  0  0  0  0  0  0  0
    3.4575   -0.0000    0.0000 C   0  0  0  0  0  0  0  0  0  0  0  0
    4.6099   -0.6638    0.0000 N   0  0  0  0  0  0  0  0  0  0  0  0
  1  2  1  0  0  0  0 
  2  3  1  0  0  0  0 
  3  4  1  0  0  0  0 
  4  5  1  0  0  0  0 
M  END
> <Name>
Ethanamine, 2-methoxy-

> <Source>
DSSTox2DMolFile

> <Tox>
2.156

> <CAS>
109-85-3

$$$$

  CDK

  5  4  0  0  0  0  0  0  0  0999 V2000
    3.4694   -0.0000    0.0000 O   0  0  0  0  0  0  0  0  0  0  0  0
    2.3129   -0.6569    0.0000 C   0  0  0  0  0  0  0  0  0  0  0  0
    4.6259   -0.6569    0.0000 C   0  0  0  0  0  0  0  0  0  0  0  0
    1.1565   -0.0000    0.0000 O   0  0  0  0  0  0  0  0  0  0  0  0
    0.0000   -0.6569    0.0000 C   0  0  0  0  0  0  0  0  0  0  0  0
  1  2  1  0  0  0  0 
  1  3  1  0  0  0  0 
  2  4  1  0  0  0  0 
  4  5  1  0  0  0  0 
M  END
> <Name>
Methane, dimethoxy-

> <Source>
DSSTox2DMolFile

> <Tox>
1.037

> <CAS>
109-87-5

$$$$

  CDK

  5  4  0  0  0  0  0  0  0  0999 V2000
    0.0000   -0.6638    0.0000 C   0  0  0  0  0  0  0  0  0  0  0  0
    1.1525   -0.0000    0.0000 C   0  0  0  0  0  0  0  0  0  0  0  0
    2.3050   -0.6638    0.0000 N   0  0  0  0  0  0  0  0  0  0  0  0
    3.4575   -0.0000    0.0000 C   0  0  0  0  0  0  0  0  0  0  0  0
    4.6099   -0.6638    0.0000 C   0  0  0  0  0  0  0  0  0  0  0  0
  1  2  1  0  0  0  0 
  2  3  1  0  0  0  0 
  3  4  1  0  0  0  0 
  4  5  1  0  0  0  0 
M  END
> <Name>
Ethanamine, N-ethyl-

> <Source>
DSSTox2DMolFile

> <Tox>
1.932

> <CAS>
109-89-7

$$$$

  CDK

  5  5  0  0  0  0  0  0  0  0999 V2000
    1.7409   -0.0000    0.0000 N   0  0  0  0  0  0  0  0  0  0  0  0
    2.1519   -1.2653    0.0000 C   0  0  0  0  0  0  0  0  0  0  0  0
    0.4110   -0.0000    0.0000 C   0  0  0  0  0  0  0  0  0  0  0  0
    1.0760   -2.0465    0.0000 C   0  0  0  0  0  0  0  0  0  0  0  0
    0.0000   -1.2653    0.0000 C   0  0  0  0  0  0  0  0  0  0  0  0
  1  2  1  0  0  0  0 
  1  3  1  0  0  0  0 
  2  4  2  0  0  0  0 
  5  3  2  0  0  0  0 
  4  5  1  0  0  0  0 
M  END
> <Name>
1H-Pyrrole

> <Source>
DSSTox2DMolFile

> <Tox>
2.504

> <CAS>
109-97-7

$$$$

  CDK

  5  5  0  0  0  0  0  0  0  0999 V2000
    1.0798   -0.0000    0.0000 O   0  0  0  0  0  0  0  0  0  0  0  0
    0.0000   -0.7451    0.0000 C   0  0  0  0  0  0  0  0  0  0  0  0
    2.1597   -0.7451    0.0000 C   0  0  0  0  0  0  0  0  0  0  0  0
    0.4298   -2.0323    0.0000 C   0  0  0  0  0  0  0  0  0  0  0  0
    1.7472   -2.0323    0.0000 C   0  0  0  0  0  0  0  0  0  0  0  0
  1  2  1  0  0  0  0 
  1  3  1  0  0  0  0 
  2  4  1  0  0  0  0 
  3  5  1  0  0  0  0 
  4  5  1  0  0  0  0 
M  END
> <Name>
Furan, tetrahydro-

> <Source>
DSSTox2DMolFile

> <Tox>
1.524

> <CAS>
109-99-9

$$$$

  CDK

  5  5  0  0  0  0  0  0  0  0999 V2000
    1.7409   -0.0000    0.0000 C   0  0  0  0  0  0  0  0  0  0  0  0
    2.1519   -1.2653    0.0000 C   0  0  0  0  0  0  0  0  0  0  0  0
    0.4110   -0.0000    0.0000 C   0  0  0  0  0  0  0  0  0  0  0  0
    1.0760   -2.0465    0.0000 O   0  0  0  0  0  0  0  0  0  0  0  0
    0.0000   -1.2653    0.0000 C   0  0  0  0  0  0  0  0  0  0  0  0
  1  2  2  0  0  0  0 
  1  3  1  0  0  0  0 
  2  4  1  0  0  0  0 
  5  3  2  0  0  0  0 
  4  5  1  0  0  0  0 
M  END
> <Name>
Furan

> <Source>
DSSTox2DMolFile

> <Tox>
3.048

> <CAS>
110-00-9

$$$$

  CDK

 10  9  0  0  0  0  0  0  0  0999 V2000
    1.8155   -2.9682    0.0000 C   0  0  0  0  0  0  0  0  0  0  0  0
    1.1527   -1.8155    0.0000 C   0  0  0  0  0  0  0  0  0  0  0  0
    0.0000   -2.4783    0.0000 C   0  0  0  0  0  0  0  0  0  0  0  0
    0.4899   -0.6628    0.0000 C   0  0  0  0  0  0  0  0  0  0  0  0
    2.3054   -1.1527    0.0000 S   0  0  0  0  0  0  0  0  0  0  0  0
    3.4581   -1.8155    0.0000 S   0  0  0  0  0  0  0  0  0  0  0  0
    4.6108   -1.1527    0.0000 C   0  0  0  0  0  0  0  0  0  0  0  0
    3.9480   -0.0000    0.0000 C   0  0  0  0  0  0  0  0  0  0  0  0
    5.7635   -0.4841    0.0000 C   0  0  0  0  0  0  0  0  0  0  0  0
    5.2736   -2.3054    0.0000 C   0  0  0  0  0  0  0  0  0  0  0  0
  1  2  1  0  0  0  0 
  2  3  1  0  0  0  0 
  2  4  1  0  0  0  0 
  2  5  1  0  0  0  0 
  5  6  1  0  0  0  0 
  6  7  1  0  0  0  0 
  7  8  1  0  0  0  0 
  7  9  1  0  0  0  0 
  7 10  1  0  0  0  0 
M  END
> <Name>
Disulfide, bis(1,1-dimethylethyl)

> <Source>
DSSTox2DMolFile

> <Tox>
5.115

> <CAS>
110-06-5

$$$$

  CDK

  8  7  0  0  0  0  0  0  0  0999 V2000
    5.7628   -1.9939    0.0000 C   0  0  0  0  0  0  0  0  0  0  0  0
    4.6103   -1.3312    0.0000 C   0  0  0  0  0  0  0  0  0  0  0  0
    4.6103   -0.0000    0.0000 O   0  0  0  0  0  0  0  0  0  0  0  0
    3.4577   -1.9939    0.0000 C   0  0  0  0  0  0  0  0  0  0  0  0
    2.3051   -1.3312    0.0000 C   0  0  0  0  0  0  0  0  0  0  0  0
    1.1526   -1.9939    0.0000 C   0  0  0  0  0  0  0  0  0  0  0  0
    1.1526   -3.3252    0.0000 C   0  0  0  0  0  0  0  0  0  0  0  0
    0.0000   -1.3312    0.0000 C   0  0  0  0  0  0  0  0  0  0  0  0
  1  2  1  0  0  0  0 
  2  3  2  0  0  0  0 
  2  4  1  0  0  0  0 
  4  5  1  0  0  0  0 
  5  6  1  0  0  0  0 
  6  7  1  0  0  0  0 
  6  8  1  0  0  0  0 
M  END
> <Name>
2-Hexanone, 5-methyl-

> <Source>
DSSTox2DMolFile

> <Tox>
2.856

> <CAS>
110-12-3

$$$$

  CDK

 18 17  0  0  0  0  0  0  0  0999 V2000
   16.0803   -3.3125    0.0000 C   0  0  0  0  0  0  0  0  0  0  0  0
   16.0803   -1.9940    0.0000 C   0  0  0  0  0  0  0  0  0  0  0  0
   14.9386   -1.3186    0.0000 O   0  0  0  0  0  0  0  0  0  0  0  0
   13.7808   -1.9940    0.0000 C   0  0  0  0  0  0  0  0  0  0  0  0
   13.7808   -3.3125    0.0000 O   0  0  0  0  0  0  0  0  0  0  0  0
   12.6391   -1.3186    0.0000 C   0  0  0  0  0  0  0  0  0  0  0  0
   11.4813   -1.9940    0.0000 C   0  0  0  0  0  0  0  0  0  0  0  0
   10.3396   -1.3186    0.0000 C   0  0  0  0  0  0  0  0  0  0  0  0
    9.1819   -1.9940    0.0000 C   0  0  0  0  0  0  0  0  0  0  0  0
    8.0402   -1.3186    0.0000 C   0  0  0  0  0  0  0  0  0  0  0  0
    6.8985   -1.9940    0.0000 C   0  0  0  0  0  0  0  0  0  0  0  0
    5.7407   -1.3186    0.0000 C   0  0  0  0  0  0  0  0  0  0  0  0
    4.5990   -1.9940    0.0000 C   0  0  0  0  0  0  0  0  0  0  0  0
    3.4412   -1.3186    0.0000 C   0  0  0  0  0  0  0  0  0  0  0  0
    3.4412   -0.0000    0.0000 O   0  0  0  0  0  0  0  0  0  0  0  0
    2.2995   -1.9940    0.0000 O   0  0  0  0  0  0  0  0  0  0  0  0
    1.1417   -1.3186    0.0000 C   0  0  0  0  0  0  0  0  0  0  0  0
    0.0000   -1.9940    0.0000 C   0  0  0  0  0  0  0  0  0  0  0  0
  1  2  1  0  0  0  0 
  2  3  1  0  0  0  0 
  3  4  1  0  0  0  0 
  4  5  2  0  0  0  0 
  4  6  1  0  0  0  0 
  6  7  1  0  0  0  0 
  7  8  1  0  0  0  0 
  8  9  1  0  0  0  0 
  9 10  1  0  0  0  0 
 10 11  1  0  0  0  0 
 11 12  1  0  0  0  0 
 12 13  1  0  0  0  0 
 13 14  1  0  0  0  0 
 14 15  2  0  0  0  0 
 14 16  1  0  0  0  0 
 16 17  1  0  0  0  0 
 17 18  1  0  0  0  0 
M  END
> <Name>
Decanedioic acid, diethyl ester

> <Source>
DSSTox2DMolFile

> <Tox>
4.976

> <CAS>
110-40-7

$$$$

  CDK

  8  7  0  0  0  0  0  0  0  0999 V2000
    0.0000   -1.9974    0.0000 C   0  0  0  0  0  0  0  0  0  0  0  0
    1.1542   -1.3339    0.0000 C   0  0  0  0  0  0  0  0  0  0  0  0
    2.3015   -1.9974    0.0000 C   0  0  0  0  0  0  0  0  0  0  0  0
    3.4558   -1.3339    0.0000 C   0  0  0  0  0  0  0  0  0  0  0  0
    4.6100   -1.9974    0.0000 C   0  0  0  0  0  0  0  0  0  0  0  0
    5.7573   -1.3339    0.0000 C   0  0  0  0  0  0  0  0  0  0  0  0
    5.7573   -0.0000    0.0000 O   0  0  0  0  0  0  0  0  0  0  0  0
    6.9115   -1.9974    0.0000 C   0  0  0  0  0  0  0  0  0  0  0  0
  1  2  1  0  0  0  0 
  2  3  1  0  0  0  0 
  3  4  1  0  0  0  0 
  4  5  1  0  0  0  0 
  5  6  1  0  0  0  0 
  6  7  2  0  0  0  0 
  6  8  1  0  0  0  0 
M  END
> <Name>
2-Heptanone

> <Source>
DSSTox2DMolFile

> <Tox>
2.940

> <CAS>
110-43-0

$$$$

  CDK

  6  5  0  0  0  0  0  0  0  0999 V2000
    0.0000   -0.6630    0.0000 C   0  0  0  0  0  0  0  0  0  0  0  0
    1.1530   -0.0000    0.0000 C   0  0  0  0  0  0  0  0  0  0  0  0
    2.3060   -0.6630    0.0000 C   0  0  0  0  0  0  0  0  0  0  0  0
    3.4590   -0.0000    0.0000 C   0  0  0  0  0  0  0  0  0  0  0  0
    4.6119   -0.6630    0.0000 C   0  0  0  0  0  0  0  0  0  0  0  0
    5.7649   -0.0000    0.0000 C   0  0  0  0  0  0  0  0  0  0  0  0
  1  2  1  0  0  0  0 
  2  3  1  0  0  0  0 
  3  4  1  0  0  0  0 
  4  5  1  0  0  0  0 
  5  6  1  0  0  0  0 
M  END
> <Name>
n-Hexane

> <Source>
DSSTox2DMolFile

> <Tox>
4.537

> <CAS>
110-54-3

$$$$

  CDK

  6  5  0  0  0  0  0  0  0  0999 V2000
    0.0000   -0.6630    0.0000 Cl  0  0  0  0  0  0  0  0  0  0  0  0
    1.1530   -0.0000    0.0000 C   0  0  0  0  0  0  0  0  0  0  0  0
    2.3060   -0.6630    0.0000 C   0  0  0  0  0  0  0  0  0  0  0  0
    3.4590   -0.0000    0.0000 C   0  0  0  0  0  0  0  0  0  0  0  0
    4.6119   -0.6630    0.0000 C   0  0  0  0  0  0  0  0  0  0  0  0
    5.7649   -0.0000    0.0000 Cl  0  0  0  0  0  0  0  0  0  0  0  0
  1  2  1  0  0  0  0 
  2  3  1  0  0  0  0 
  3  4  1  0  0  0  0 
  4  5  1  0  0  0  0 
  5  6  1  0  0  0  0 
M  END
> <Name>
Butane, 1,4-dichloro-

> <Source>
DSSTox2DMolFile

> <Tox>
3.391

> <CAS>
110-56-5

$$$$

  CDK

  6  5  0  0  0  0  0  0  0  0999 V2000
    0.0000   -0.6630    0.0000 C   0  0  0  0  0  0  0  0  0  0  0  0
    1.1530   -0.0000    0.0000 C   0  0  0  0  0  0  0  0  0  0  0  0
    2.3060   -0.6630    0.0000 C   0  0  0  0  0  0  0  0  0  0  0  0
    3.4590   -0.0000    0.0000 C   0  0  0  0  0  0  0  0  0  0  0  0
    4.6119   -0.6630    0.0000 C   0  0  0  0  0  0  0  0  0  0  0  0
    5.7649   -0.0000    0.0000 O   0  0  0  0  0  0  0  0  0  0  0  0
  1  2  1  0  0  0  0 
  2  3  1  0  0  0  0 
  3  4  1  0  0  0  0 
  4  5  1  0  0  0  0 
  5  6  2  0  0  0  0 
M  END
> <Name>
Valeraldehyde

> <Source>
DSSTox2DMolFile

> <Tox>
3.825

> <CAS>
110-62-3

$$$$

  CDK

  6  5  0  0  0  0  0  0  0  0999 V2000
    0.0000   -0.6630    0.0000 C   0  0  0  0  0  0  0  0  0  0  0  0
    1.1530   -0.0000    0.0000 C   0  0  0  0  0  0  0  0  0  0  0  0
    2.3060   -0.6630    0.0000 N   0  0  0  0  0  0  0  0  0  0  0  0
    3.4590   -0.0000    0.0000 C   0  0  0  0  0  0  0  0  0  0  0  0
    4.6119   -0.6630    0.0000 C   0  0  0  0  0  0  0  0  0  0  0  0
    5.7649   -0.0000    0.0000 O   0  0  0  0  0  0  0  0  0  0  0  0
  1  2  1  0  0  0  0 
  2  3  1  0  0  0  0 
  3  4  1  0  0  0  0 
  4  5  1  0  0  0  0 
  5  6  1  0  0  0  0 
M  END
> <Name>
Ethanol, 2-(ethylamino)-

> <Source>
DSSTox2DMolFile

> <Tox>
1.780

> <CAS>
110-73-6

$$$$

  CDK

  6  6  0  0  0  0  0  0  0  0999 V2000
    2.3036   -1.9950    0.0000 C   0  0  0  0  0  0  0  0  0  0  0  0
    1.1518   -2.6600    0.0000 C   0  0  0  0  0  0  0  0  0  0  0  0
    2.3036   -0.6650    0.0000 C   0  0  0  0  0  0  0  0  0  0  0  0
    0.0000   -1.9950    0.0000 C   0  0  0  0  0  0  0  0  0  0  0  0
    1.1518   -0.0000    0.0000 C   0  0  0  0  0  0  0  0  0  0  0  0
    0.0000   -0.6650    0.0000 C   0  0  0  0  0  0  0  0  0  0  0  0
  1  2  1  0  0  0  0 
  1  3  1  0  0  0  0 
  2  4  1  0  0  0  0 
  5  3  1  0  0  0  0 
  4  6  1  0  0  0  0 
  6  5  1  0  0  0  0 
M  END
> <Name>
Cyclohexane

> <Source>
DSSTox2DMolFile

> <Tox>
3.298

> <CAS>
110-82-7

$$$$

  CDK

  6  6  0  0  0  0  0  0  0  0999 V2000
    2.3036   -1.9950    0.0000 C   0  0  0  0  0  0  0  0  0  0  0  0
    1.1518   -2.6600    0.0000 O   0  0  0  0  0  0  0  0  0  0  0  0
    2.3036   -0.6650    0.0000 O   0  0  0  0  0  0  0  0  0  0  0  0
    0.0000   -1.9950    0.0000 C   0  0  0  0  0  0  0  0  0  0  0  0
    1.1518   -0.0000    0.0000 C   0  0  0  0  0  0  0  0  0  0  0  0
    0.0000   -0.6650    0.0000 O   0  0  0  0  0  0  0  0  0  0  0  0
  1  2  1  0  0  0  0 
  1  3  1  0  0  0  0 
  2  4  1  0  0  0  0 
  5  3  1  0  0  0  0 
  4  6  1  0  0  0  0 
  6  5  1  0  0  0  0 
M  END
> <Name>
1,3,5-Trioxane

> <Source>
DSSTox2DMolFile

> <Tox>
1.180

> <CAS>
110-88-3

$$$$

  CDK

  9  8  0  0  0  0  0  0  0  0999 V2000
    0.0000   -1.1546    0.0000 C   0  0  0  0  0  0  0  0  0  0  0  0
    1.3281   -1.1546    0.0000 C   0  0  0  0  0  0  0  0  0  0  0  0
    1.9922   -2.3033    0.0000 C   0  0  0  0  0  0  0  0  0  0  0  0
    1.9922   -0.0000    0.0000 C   0  0  0  0  0  0  0  0  0  0  0  0
    3.3263   -0.0000    0.0000 C   0  0  0  0  0  0  0  0  0  0  0  0
    3.9904   -1.1546    0.0000 C   0  0  0  0  0  0  0  0  0  0  0  0
    5.3186   -1.1546    0.0000 C   0  0  0  0  0  0  0  0  0  0  0  0
    5.9826   -0.0000    0.0000 C   0  0  0  0  0  0  0  0  0  0  0  0
    5.9826   -2.3033    0.0000 O   0  0  0  0  0  0  0  0  0  0  0  0
  1  2  1  0  0  0  0 
  2  3  1  0  0  0  0 
  2  4  2  0  0  0  0 
  4  5  1  0  0  0  0 
  5  6  1  0  0  0  0 
  6  7  1  0  0  0  0 
  7  8  1  0  0  0  0 
  7  9  2  0  0  0  0 
M  END
> <Name>
5-Hepten-2-one, 6-methyl-

> <Source>
DSSTox2DMolFile

> <Tox>
3.168

> <CAS>
110-93-0

$$$$

  CDK

  7  6  0  0  0  0  0  0  0  0999 V2000
    0.0000   -0.6638    0.0000 Br  0  0  0  0  0  0  0  0  0  0  0  0
    1.1548   -0.0000    0.0000 C   0  0  0  0  0  0  0  0  0  0  0  0
    2.3027   -0.6638    0.0000 C   0  0  0  0  0  0  0  0  0  0  0  0
    3.4575   -0.0000    0.0000 C   0  0  0  0  0  0  0  0  0  0  0  0
    4.6122   -0.6638    0.0000 C   0  0  0  0  0  0  0  0  0  0  0  0
    5.7601   -0.0000    0.0000 C   0  0  0  0  0  0  0  0  0  0  0  0
    6.9149   -0.6638    0.0000 C   0  0  0  0  0  0  0  0  0  0  0  0
  1  2  1  0  0  0  0 
  2  3  1  0  0  0  0 
  3  4  1  0  0  0  0 
  4  5  1  0  0  0  0 
  5  6  1  0  0  0  0 
  6  7  1  0  0  0  0 
M  END
> <Name>
Hexane, 1-bromo-

> <Source>
DSSTox2DMolFile

> <Tox>
4.680

> <CAS>
111-25-1

$$$$

  CDK

  7  6  0  0  0  0  0  0  0  0999 V2000
    0.0000   -0.6638    0.0000 O   0  0  0  0  0  0  0  0  0  0  0  0
    1.1548   -0.0000    0.0000 C   0  0  0  0  0  0  0  0  0  0  0  0
    2.3027   -0.6638    0.0000 C   0  0  0  0  0  0  0  0  0  0  0  0
    3.4575   -0.0000    0.0000 O   0  0  0  0  0  0  0  0  0  0  0  0
    4.6122   -0.6638    0.0000 C   0  0  0  0  0  0  0  0  0  0  0  0
    5.7601   -0.0000    0.0000 C   0  0  0  0  0  0  0  0  0  0  0  0
    6.9149   -0.6638    0.0000 O   0  0  0  0  0  0  0  0  0  0  0  0
  1  2  1  0  0  0  0 
  2  3  1  0  0  0  0 
  3  4  1  0  0  0  0 
  4  5  1  0  0  0  0 
  5  6  1  0  0  0  0 
  6  7  1  0  0  0  0 
M  END
> <Name>
Ethanol, 2,2'-oxybis-

> <Source>
DSSTox2DMolFile

> <Tox>
0.150

> <CAS>
111-46-6

$$$$

  CDK

  7  6  0  0  0  0  0  0  0  0999 V2000
    0.0000   -0.6638    0.0000 C   0  0  0  0  0  0  0  0  0  0  0  0
    1.1548   -0.0000    0.0000 C   0  0  0  0  0  0  0  0  0  0  0  0
    2.3027   -0.6638    0.0000 C   0  0  0  0  0  0  0  0  0  0  0  0
    3.4575   -0.0000    0.0000 S   0  0  0  0  0  0  0  0  0  0  0  0
    4.6122   -0.6638    0.0000 C   0  0  0  0  0  0  0  0  0  0  0  0
    5.7601   -0.0000    0.0000 C   0  0  0  0  0  0  0  0  0  0  0  0
    6.9149   -0.6638    0.0000 C   0  0  0  0  0  0  0  0  0  0  0  0
  1  2  1  0  0  0  0 
  2  3  1  0  0  0  0 
  3  4  1  0  0  0  0 
  4  5  1  0  0  0  0 
  5  6  1  0  0  0  0 
  6  7  1  0  0  0  0 
M  END
> <Name>
Propyl sulfide (8CI)

> <Source>
DSSTox2DMolFile

> <Tox>
3.736

> <CAS>
111-47-7

$$$$

  CDK

  8  7  0  0  0  0  0  0  0  0999 V2000
    8.0744   -0.0000    0.0000 C   0  0  0  0  0  0  0  0  0  0  0  0
    6.9197   -0.6621    0.0000 C   0  0  0  0  0  0  0  0  0  0  0  0
    5.7651   -0.0000    0.0000 C   0  0  0  0  0  0  0  0  0  0  0  0
    4.6105   -0.6621    0.0000 C   0  0  0  0  0  0  0  0  0  0  0  0
    3.4639   -0.0000    0.0000 C   0  0  0  0  0  0  0  0  0  0  0  0
    2.3093   -0.6621    0.0000 C   0  0  0  0  0  0  0  0  0  0  0  0
    1.1546   -0.0000    0.0000 C   0  0  0  0  0  0  0  0  0  0  0  0
    0.0000   -0.6621    0.0000 O   0  0  0  0  0  0  0  0  0  0  0  0
  1  2  1  0  0  0  0 
  2  3  1  0  0  0  0 
  3  4  1  0  0  0  0 
  4  5  1  0  0  0  0 
  5  6  1  0  0  0  0 
  6  7  1  0  0  0  0 
  7  8  1  0  0  0  0 
M  END
> <Name>
Heptyl alcohol

> <Source>
DSSTox2DMolFile

> <Tox>
3.507

> <CAS>
111-70-6

$$$$

  CDK

  9  8  0  0  0  0  0  0  0  0999 V2000
    0.0000   -0.6638    0.0000 Br  0  0  0  0  0  0  0  0  0  0  0  0
    1.1525   -0.0000    0.0000 C   0  0  0  0  0  0  0  0  0  0  0  0
    2.3050   -0.6638    0.0000 C   0  0  0  0  0  0  0  0  0  0  0  0
    3.4575   -0.0000    0.0000 C   0  0  0  0  0  0  0  0  0  0  0  0
    4.6099   -0.6638    0.0000 C   0  0  0  0  0  0  0  0  0  0  0  0
    5.7624   -0.0000    0.0000 C   0  0  0  0  0  0  0  0  0  0  0  0
    6.9149   -0.6638    0.0000 C   0  0  0  0  0  0  0  0  0  0  0  0
    8.0674   -0.0000    0.0000 C   0  0  0  0  0  0  0  0  0  0  0  0
    9.2199   -0.6638    0.0000 C   0  0  0  0  0  0  0  0  0  0  0  0
  1  2  1  0  0  0  0 
  2  3  1  0  0  0  0 
  3  4  1  0  0  0  0 
  4  5  1  0  0  0  0 
  5  6  1  0  0  0  0 
  6  7  1  0  0  0  0 
  7  8  1  0  0  0  0 
  8  9  1  0  0  0  0 
M  END
> <Name>
Octane, 1-bromo-

> <Source>
DSSTox2DMolFile

> <Tox>
5.363

> <CAS>
111-83-1

$$$$

  CDK

  9  8  0  0  0  0  0  0  0  0999 V2000
    0.0000   -0.6638    0.0000 C   0  0  0  0  0  0  0  0  0  0  0  0
    1.1525   -0.0000    0.0000 C   0  0  0  0  0  0  0  0  0  0  0  0
    2.3050   -0.6638    0.0000 C   0  0  0  0  0  0  0  0  0  0  0  0
    3.4575   -0.0000    0.0000 C   0  0  0  0  0  0  0  0  0  0  0  0
    4.6099   -0.6638    0.0000 C   0  0  0  0  0  0  0  0  0  0  0  0
    5.7624   -0.0000    0.0000 C   0  0  0  0  0  0  0  0  0  0  0  0
    6.9149   -0.6638    0.0000 C   0  0  0  0  0  0  0  0  0  0  0  0
    8.0674   -0.0000    0.0000 C   0  0  0  0  0  0  0  0  0  0  0  0
    9.2199   -0.6638    0.0000 N   0  0  0  0  0  0  0  0  0  0  0  0
  1  2  1  0  0  0  0 
  2  3  1  0  0  0  0 
  3  4  1  0  0  0  0 
  4  5  1  0  0  0  0 
  5  6  1  0  0  0  0 
  6  7  1  0  0  0  0 
  7  8  1  0  0  0  0 
  8  9  1  0  0  0  0 
M  END
> <Name>
1-Octanamine

> <Source>
DSSTox2DMolFile

> <Tox>
4.396

> <CAS>
111-86-4

$$$$

  CDK

  9  8  0  0  0  0  0  0  0  0999 V2000
    0.0000   -0.6638    0.0000 C   0  0  0  0  0  0  0  0  0  0  0  0
    1.1525   -0.0000    0.0000 C   0  0  0  0  0  0  0  0  0  0  0  0
    2.3050   -0.6638    0.0000 C   0  0  0  0  0  0  0  0  0  0  0  0
    3.4575   -0.0000    0.0000 C   0  0  0  0  0  0  0  0  0  0  0  0
    4.6099   -0.6638    0.0000 C   0  0  0  0  0  0  0  0  0  0  0  0
    5.7624   -0.0000    0.0000 C   0  0  0  0  0  0  0  0  0  0  0  0
    6.9149   -0.6638    0.0000 C   0  0  0  0  0  0  0  0  0  0  0  0
    8.0674   -0.0000    0.0000 C   0  0  0  0  0  0  0  0  0  0  0  0
    9.2199   -0.6638    0.0000 O   0  0  0  0  0  0  0  0  0  0  0  0
  1  2  1  0  0  0  0 
  2  3  1  0  0  0  0 
  3  4  1  0  0  0  0 
  4  5  1  0  0  0  0 
  5  6  1  0  0  0  0 
  6  7  1  0  0  0  0 
  7  8  1  0  0  0  0 
  8  9  1  0  0  0  0 
M  END
> <Name>
Octyl alcohol

> <Source>
DSSTox2DMolFile

> <Tox>
3.984

> <CAS>
111-87-5

$$$$

  CDK

  9  8  0  0  0  0  0  0  0  0999 V2000
    5.7436   -0.0000    0.0000 O   0  0  0  0  0  0  0  0  0  0  0  0
    4.6004   -0.6638    0.0000 C   0  0  0  0  0  0  0  0  0  0  0  0
    6.9513   -0.6638    0.0000 C   0  0  0  0  0  0  0  0  0  0  0  0
    3.4756   -0.0000    0.0000 O   0  0  0  0  0  0  0  0  0  0  0  0
    8.0760   -0.0000    0.0000 C   0  0  0  0  0  0  0  0  0  0  0  0
    2.2679   -0.6638    0.0000 C   0  0  0  0  0  0  0  0  0  0  0  0
    9.2192   -0.6638    0.0000 Cl  0  0  0  0  0  0  0  0  0  0  0  0
    1.1432   -0.0000    0.0000 C   0  0  0  0  0  0  0  0  0  0  0  0
    0.0000   -0.6638    0.0000 Cl  0  0  0  0  0  0  0  0  0  0  0  0
  1  2  1  0  0  0  0 
  1  3  1  0  0  0  0 
  2  4  1  0  0  0  0 
  3  5  1  0  0  0  0 
  4  6  1  0  0  0  0 
  5  7  1  0  0  0  0 
  6  8  1  0  0  0  0 
  8  9  1  0  0  0  0 
M  END
> <Name>
Ethane, 1,1'-(methylenebis(oxy))bis(2-chloro-

> <Source>
DSSTox2DMolFile

> <Tox>
2.973

> <CAS>
111-91-1

$$$$

  CDK

 12 11  0  0  0  0  0  0  0  0999 V2000
    0.0000   -1.9913    0.0000 C   0  0  0  0  0  0  0  0  0  0  0  0
    1.1510   -1.3237    0.0000 C   0  0  0  0  0  0  0  0  0  0  0  0
    2.3021   -1.9913    0.0000 C   0  0  0  0  0  0  0  0  0  0  0  0
    3.4531   -1.3237    0.0000 C   0  0  0  0  0  0  0  0  0  0  0  0
    4.6041   -1.9913    0.0000 C   0  0  0  0  0  0  0  0  0  0  0  0
    5.7552   -1.3237    0.0000 C   0  0  0  0  0  0  0  0  0  0  0  0
    6.9062   -1.9913    0.0000 C   0  0  0  0  0  0  0  0  0  0  0  0
    8.0573   -1.3237    0.0000 C   0  0  0  0  0  0  0  0  0  0  0  0
    9.2083   -1.9913    0.0000 C   0  0  0  0  0  0  0  0  0  0  0  0
   10.3593   -1.3237    0.0000 C   0  0  0  0  0  0  0  0  0  0  0  0
   10.3593   -0.0000    0.0000 O   0  0  0  0  0  0  0  0  0  0  0  0
   11.5104   -1.9913    0.0000 C   0  0  0  0  0  0  0  0  0  0  0  0
  1  2  1  0  0  0  0 
  2  3  1  0  0  0  0 
  3  4  1  0  0  0  0 
  4  5  1  0  0  0  0 
  5  6  1  0  0  0  0 
  6  7  1  0  0  0  0 
  7  8  1  0  0  0  0 
  8  9  1  0  0  0  0 
  9 10  1  0  0  0  0 
 10 11  2  0  0  0  0 
 10 12  1  0  0  0  0 
M  END
> <Name>
2-Undecanone

> <Source>
DSSTox2DMolFile

> <Tox>
5.055

> <CAS>
112-12-9

$$$$

  CDK

 10  9  0  0  0  0  0  0  0  0999 V2000
    0.0000   -0.6638    0.0000 O   0  0  0  0  0  0  0  0  0  0  0  0
    1.1513   -0.0000    0.0000 C   0  0  0  0  0  0  0  0  0  0  0  0
    2.3027   -0.6638    0.0000 C   0  0  0  0  0  0  0  0  0  0  0  0
    3.4540   -0.0000    0.0000 O   0  0  0  0  0  0  0  0  0  0  0  0
    4.6053   -0.6638    0.0000 C   0  0  0  0  0  0  0  0  0  0  0  0
    5.7670   -0.0000    0.0000 C   0  0  0  0  0  0  0  0  0  0  0  0
    6.9184   -0.6638    0.0000 O   0  0  0  0  0  0  0  0  0  0  0  0
    8.0697   -0.0000    0.0000 C   0  0  0  0  0  0  0  0  0  0  0  0
    9.2210   -0.6638    0.0000 C   0  0  0  0  0  0  0  0  0  0  0  0
   10.3724   -0.0000    0.0000 O   0  0  0  0  0  0  0  0  0  0  0  0
  1  2  1  0  0  0  0 
  2  3  1  0  0  0  0 
  3  4  1  0  0  0  0 
  4  5  1  0  0  0  0 
  5  6  1  0  0  0  0 
  6  7  1  0  0  0  0 
  7  8  1  0  0  0  0 
  8  9  1  0  0  0  0 
  9 10  1  0  0  0  0 
M  END
> <Name>
Ethanol, 2,2'-(1,2-ethanediylbis(oxy))bis-

> <Source>
DSSTox2DMolFile

> <Tox>
0.309

> <CAS>
112-27-6

$$$$

  CDK

 12 11  0  0  0  0  0  0  0  0999 V2000
    1.1501   -0.0000    0.0000 C   0  0  0  0  0  0  0  0  0  0  0  0
    2.2876   -0.6699    0.0000 C   0  0  0  0  0  0  0  0  0  0  0  0
    0.0000   -0.6699    0.0000 O   0  0  0  0  0  0  0  0  0  0  0  0
    3.4378   -0.0000    0.0000 C   0  0  0  0  0  0  0  0  0  0  0  0
    4.5879   -0.6699    0.0000 C   0  0  0  0  0  0  0  0  0  0  0  0
    5.7381   -0.0000    0.0000 C   0  0  0  0  0  0  0  0  0  0  0  0
    6.9008   -0.6699    0.0000 C   0  0  0  0  0  0  0  0  0  0  0  0
    8.0510   -0.0000    0.0000 C   0  0  0  0  0  0  0  0  0  0  0  0
    9.2011   -0.6699    0.0000 C   0  0  0  0  0  0  0  0  0  0  0  0
   10.3512   -0.0000    0.0000 C   0  0  0  0  0  0  0  0  0  0  0  0
   11.4887   -0.6699    0.0000 C   0  0  0  0  0  0  0  0  0  0  0  0
   12.6389   -0.0000    0.0000 C   0  0  0  0  0  0  0  0  0  0  0  0
  1  2  1  0  0  0  0 
  1  3  1  0  0  0  0 
  2  4  1  0  0  0  0 
  4  5  1  0  0  0  0 
  5  6  1  0  0  0  0 
  6  7  1  0  0  0  0 
  7  8  1  0  0  0  0 
  8  9  1  0  0  0  0 
  9 10  1  0  0  0  0 
 10 11  1  0  0  0  0 
 11 12  1  0  0  0  0 
M  END
> <Name>
Undecyl alcohol

> <Source>
DSSTox2DMolFile

> <Tox>
5.219

> <CAS>
112-42-5

$$$$

  CDK

 13 12  0  0  0  0  0  0  0  0999 V2000
    1.1737   -0.0000    0.0000 C   0  0  0  0  0  0  0  0  0  0  0  0
    2.3334   -0.6427    0.0000 C   0  0  0  0  0  0  0  0  0  0  0  0
    0.0000   -0.6427    0.0000 O   0  0  0  0  0  0  0  0  0  0  0  0
    3.5071   -0.0000    0.0000 C   0  0  0  0  0  0  0  0  0  0  0  0
    4.6528   -0.6427    0.0000 C   0  0  0  0  0  0  0  0  0  0  0  0
    5.8265   -0.0000    0.0000 C   0  0  0  0  0  0  0  0  0  0  0  0
    6.9862   -0.6427    0.0000 C   0  0  0  0  0  0  0  0  0  0  0  0
    8.1460   -0.0000    0.0000 C   0  0  0  0  0  0  0  0  0  0  0  0
    9.3197   -0.6427    0.0000 C   0  0  0  0  0  0  0  0  0  0  0  0
   10.4654   -0.0000    0.0000 C   0  0  0  0  0  0  0  0  0  0  0  0
   11.6391   -0.6427    0.0000 C   0  0  0  0  0  0  0  0  0  0  0  0
   12.7988   -0.0000    0.0000 C   0  0  0  0  0  0  0  0  0  0  0  0
   13.9725   -0.6427    0.0000 C   0  0  0  0  0  0  0  0  0  0  0  0
  1  2  1  0  0  0  0 
  1  3  1  0  0  0  0 
  2  4  1  0  0  0  0 
  4  5  1  0  0  0  0 
  5  6  1  0  0  0  0 
  6  7  1  0  0  0  0 
  7  8  1  0  0  0  0 
  8  9  1  0  0  0  0 
  9 10  1  0  0  0  0 
 10 11  1  0  0  0  0 
 11 12  1  0  0  0  0 
 12 13  1  0  0  0  0 
M  END
> <Name>
Dodecyl alcohol

> <Source>
DSSTox2DMolFile

> <Tox>
5.266

> <CAS>
112-53-8

$$$$

  CDK

 20 19  0  0  0  0  0  0  0  0999 V2000
    0.6647   -1.1497    0.0000 C   0  0  0  0  0  0  0  0  0  0  0  0
    0.0000   -2.2995    0.0000 O   0  0  0  0  0  0  0  0  0  0  0  0
    0.0000   -0.0000    0.0000 O   0  0  0  0  0  0  0  0  0  0  0  0
    1.9941   -1.1497    0.0000 C   0  0  0  0  0  0  0  0  0  0  0  0
    2.6588   -2.3175    0.0000 C   0  0  0  0  0  0  0  0  0  0  0  0
    3.9882   -2.3175    0.0000 C   0  0  0  0  0  0  0  0  0  0  0  0
    4.6529   -3.4672    0.0000 C   0  0  0  0  0  0  0  0  0  0  0  0
    5.9823   -3.4672    0.0000 C   0  0  0  0  0  0  0  0  0  0  0  0
    6.6470   -4.6169    0.0000 C   0  0  0  0  0  0  0  0  0  0  0  0
    7.9764   -4.6349    0.0000 C   0  0  0  0  0  0  0  0  0  0  0  0
    8.6410   -5.7847    0.0000 C   0  0  0  0  0  0  0  0  0  0  0  0
    9.9704   -5.7847    0.0000 C   0  0  0  0  0  0  0  0  0  0  0  0
   10.6351   -4.6349    0.0000 C   0  0  0  0  0  0  0  0  0  0  0  0
   11.9645   -4.6349    0.0000 C   0  0  0  0  0  0  0  0  0  0  0  0
   12.6292   -3.4852    0.0000 C   0  0  0  0  0  0  0  0  0  0  0  0
   13.9586   -3.4852    0.0000 C   0  0  0  0  0  0  0  0  0  0  0  0
   14.6413   -2.3354    0.0000 C   0  0  0  0  0  0  0  0  0  0  0  0
   15.9707   -2.3354    0.0000 C   0  0  0  0  0  0  0  0  0  0  0  0
   16.6354   -1.1857    0.0000 C   0  0  0  0  0  0  0  0  0  0  0  0
   17.9648   -1.2036    0.0000 C   0  0  0  0  0  0  0  0  0  0  0  0
  1  2  2  0  0  0  0 
  1  3  1  0  0  0  0 
  1  4  1  0  0  0  0 
  4  5  1  0  0  0  0 
  5  6  1  0  0  0  0 
  7  6  1  0  0  0  0 
  8  7  1  0  0  0  0 
  9  8  1  0  0  0  0 
 10  9  1  0  0  0  0 
 11 10  1  0  0  0  0 
 12 11  2  0  0  0  0 
 12 13  1  0  0  0  0 
 13 14  1  0  0  0  0 
 14 15  1  0  0  0  0 
 16 15  1  0  0  0  0 
 17 16  1  0  0  0  0 
 18 17  1  0  0  0  0 
 19 18  1  0  0  0  0 
 19 20  1  0  0  0  0 
M  END
> <Name>
9-Octadecenoic acid (9Z)-

> <Source>
DSSTox2DMolFile

> <Tox>
3.139

> <CAS>
112-80-1

$$$$

  CDK

  6  5  0  0  0  0  0  0  0  0999 V2000
    0.0000   -2.6608    0.0000 C   0  0  0  0  0  0  0  0  0  0  0  0
    1.3284   -2.6608    0.0000 C   0  0  0  0  0  0  0  0  0  0  0  0
    2.6608   -2.6608    0.0000 O   0  0  0  0  0  0  0  0  0  0  0  0
    1.3284   -3.9892    0.0000 C   0  0  0  0  0  0  0  0  0  0  0  0
    1.3284   -1.3284    0.0000 C   0  0  0  0  0  0  0  0  0  0  0  0
    1.3284   -0.0000    0.0000 C   0  0  0  0  0  0  0  0  0  0  0  0
  1  2  1  0  0  0  0 
  2  3  1  0  0  0  0 
  2  4  1  0  0  0  0 
  2  5  1  0  0  0  0 
  5  6  3  0  0  0  0 
M  END
> <Name>
3-Butyn-2-ol, 2-methyl-

> <Source>
DSSTox2DMolFile

> <Tox>
1.408

> <CAS>
115-19-5

$$$$

  CDK

  6  5  0  0  0  0  0  0  0  0999 V2000
    1.1503   -1.1537    0.0000 C   0  0  0  0  0  0  0  0  0  0  0  0
    0.4870   -0.0000    0.0000 Cl  0  0  0  0  0  0  0  0  0  0  0  0
    1.8169   -2.3040    0.0000 Cl  0  0  0  0  0  0  0  0  0  0  0  0
    0.0000   -1.8169    0.0000 Cl  0  0  0  0  0  0  0  0  0  0  0  0
    2.3040   -0.4870    0.0000 C   0  0  0  0  0  0  0  0  0  0  0  0
    3.4542   -1.1537    0.0000 O   0  0  0  0  0  0  0  0  0  0  0  0
  1  2  1  0  0  0  0 
  1  3  1  0  0  0  0 
  1  4  1  0  0  0  0 
  1  5  1  0  0  0  0 
  5  6  1  0  0  0  0 
M  END
> <Name>
Ethanol, 2,2,2-trichloro-

> <Source>
DSSTox2DMolFile

> <Tox>
2.818

> <CAS>
115-20-8

$$$$

  CDK

 19 21  0  0  0  0  0  0  0  0999 V2000
    1.8155   -4.4809    0.0000 O   0  0  0  0  0  0  0  0  0  0  0  0
    1.2461   -3.4329    0.0000 S   0  0  0  0  0  0  0  0  0  0  0  0
    2.9873   -4.6872    0.0000 C   0  0  0  0  0  0  0  0  0  0  0  0
    1.7082   -2.3436    0.0000 O   0  0  0  0  0  0  0  0  0  0  0  0
    0.0000   -3.2101    0.0000 O   0  0  0  0  0  0  0  0  0  0  0  0
    3.8703   -3.9033    0.0000 C   0  0  0  0  0  0  0  0  0  0  0  0
    2.8552   -2.0218    0.0000 C   0  0  0  0  0  0  0  0  0  0  0  0
    3.8208   -2.7150    0.0000 C   0  0  0  0  0  0  0  0  0  0  0  0
    5.3639   -3.2101    0.0000 C   0  0  0  0  0  0  0  0  0  0  0  0
    5.5124   -1.9062    0.0000 C   0  0  0  0  0  0  0  0  0  0  0  0
    6.9483   -3.8455    0.0000 C   0  0  0  0  0  0  0  0  0  0  0  0
    4.6377   -0.7509    0.0000 C   0  0  0  0  0  0  0  0  0  0  0  0
    4.9100   -4.1013    0.0000 Cl  0  0  0  0  0  0  0  0  0  0  0  0
    7.2206   -2.5417    0.0000 C   0  0  0  0  0  0  0  0  0  0  0  0
    6.3789   -1.3369    0.0000 Cl  0  0  0  0  0  0  0  0  0  0  0  0
    7.4517   -4.5965    0.0000 Cl  0  0  0  0  0  0  0  0  0  0  0  0
    5.1659   -0.0000    0.0000 Cl  0  0  0  0  0  0  0  0  0  0  0  0
    3.8785   -0.1238    0.0000 Cl  0  0  0  0  0  0  0  0  0  0  0  0
    8.2522   -2.1373    0.0000 Cl  0  0  0  0  0  0  0  0  0  0  0  0
  1  2  1  0  0  0  0 
  1  3  1  0  0  0  0 
  2  4  1  0  0  0  0 
  2  5  2  0  0  0  0 
  3  6  1  0  0  0  0 
  4  7  1  0  0  0  0 
  6  8  1  0  0  0  0 
  6  9  1  0  0  0  0 
  8  7  1  0  0  0  0 
  8 10  1  0  0  0  0 
  9 11  1  0  0  0  0 
  9 12  1  0  0  0  0 
  9 13  1  0  0  0  0 
 10 14  1  0  0  0  0 
 10 12  1  0  0  0  0 
 10 15  1  0  0  0  0 
 11 14  2  0  0  0  0 
 11 16  1  0  0  0  0 
 12 17  1  0  0  0  0 
 12 18  1  0  0  0  0 
 14 19  1  0  0  0  0 
M  END
> <Name>
6,9-Methano-2,4,3-benzodioxathiepin, 6,7,8,9,10,10-hexachloro-1,5,5a,6,9,9a-hexahydro-, 3-oxide

> <Source>
DSSTox2DMolFile

> <Tox>
8.484

> <CAS>
115-29-7

$$$$

  CDK

 20 21  0  0  0  0  0  0  0  0999 V2000
    0.0000   -5.2475    0.0000 O   0  0  0  0  0  0  0  0  0  0  0  0
    1.3138   -5.2475    0.0000 C   0  0  0  0  0  0  0  0  0  0  0  0
    1.3138   -3.9337    0.0000 C   0  0  0  0  0  0  0  0  0  0  0  0
    3.0132   -5.2475    0.0000 C   0  0  0  0  0  0  0  0  0  0  0  0
    1.3138   -6.5535    0.0000 C   0  0  0  0  0  0  0  0  0  0  0  0
    0.1731   -3.2807    0.0000 C   0  0  0  0  0  0  0  0  0  0  0  0
    2.4467   -3.2807    0.0000 C   0  0  0  0  0  0  0  0  0  0  0  0
    3.6740   -4.1067    0.0000 C   0  0  0  0  0  0  0  0  0  0  0  0
    3.6740   -6.3804    0.0000 C   0  0  0  0  0  0  0  0  0  0  0  0
    2.6198   -6.5535    0.0000 Cl  0  0  0  0  0  0  0  0  0  0  0  0
    1.3138   -7.8673    0.0000 Cl  0  0  0  0  0  0  0  0  0  0  0  0
    0.0000   -6.5535    0.0000 Cl  0  0  0  0  0  0  0  0  0  0  0  0
    0.1731   -1.9668    0.0000 C   0  0  0  0  0  0  0  0  0  0  0  0
    2.4467   -1.9668    0.0000 C   0  0  0  0  0  0  0  0  0  0  0  0
    4.9800   -4.1067    0.0000 C   0  0  0  0  0  0  0  0  0  0  0  0
    4.9800   -6.3804    0.0000 C   0  0  0  0  0  0  0  0  0  0  0  0
    1.3138   -1.3138    0.0000 C   0  0  0  0  0  0  0  0  0  0  0  0
    5.6409   -5.2475    0.0000 C   0  0  0  0  0  0  0  0  0  0  0  0
    1.3138   -0.0000    0.0000 Cl  0  0  0  0  0  0  0  0  0  0  0  0
    6.9468   -5.2475    0.0000 Cl  0  0  0  0  0  0  0  0  0  0  0  0
  1  2  1  0  0  0  0 
  2  3  1  0  0  0  0 
  2  4  1  0  0  0  0 
  2  5  1  0  0  0  0 
  3  6  2  0  0  0  0 
  3  7  1  0  0  0  0 
  4  8  2  0  0  0  0 
  4  9  1  0  0  0  0 
  5 10  1  0  0  0  0 
  5 11  1  0  0  0  0 
  5 12  1  0  0  0  0 
  6 13  1  0  0  0  0 
 14  7  2  0  0  0  0 
  8 15  1  0  0  0  0 
 16  9  2  0  0  0  0 
 13 17  2  0  0  0  0 
 17 14  1  0  0  0  0 
 15 18  2  0  0  0  0 
 18 16  1  0  0  0  0 
 17 19  1  0  0  0  0 
 18 20  1  0  0  0  0 
M  END
> <Name>
Benzenemethanol, 4-chloro-alpha-(4-chlorophenyl)-alpha-(trichloromethyl)-

> <Source>
DSSTox2DMolFile

> <Tox>
5.861

> <CAS>
115-32-2

$$$$

  CDK

 18 18  0  0  0  0  0  0  0  0999 V2000
    0.6613   -1.5089    0.0000 S   0  0  0  0  0  0  0  0  0  0  0  0
    0.0000   -0.3539    0.0000 O   0  0  0  0  0  0  0  0  0  0  0  0
    0.0000   -2.6545    0.0000 C   0  0  0  0  0  0  0  0  0  0  0  0
    1.9932   -1.5089    0.0000 C   0  0  0  0  0  0  0  0  0  0  0  0
    2.6638   -0.3539    0.0000 C   0  0  0  0  0  0  0  0  0  0  0  0
    2.6638   -2.6545    0.0000 C   0  0  0  0  0  0  0  0  0  0  0  0
    3.9957   -0.3539    0.0000 C   0  0  0  0  0  0  0  0  0  0  0  0
    3.9957   -2.6545    0.0000 C   0  0  0  0  0  0  0  0  0  0  0  0
    4.6570   -1.5089    0.0000 C   0  0  0  0  0  0  0  0  0  0  0  0
    5.9889   -1.5089    0.0000 O   0  0  0  0  0  0  0  0  0  0  0  0
    6.6502   -2.6545    0.0000 P   0  0  0  0  0  0  0  0  0  0  0  0
    5.5046   -3.3251    0.0000 S   0  0  0  0  0  0  0  0  0  0  0  0
    7.8051   -1.9932    0.0000 O   0  0  0  0  0  0  0  0  0  0  0  0
    7.3208   -3.8094    0.0000 O   0  0  0  0  0  0  0  0  0  0  0  0
    7.8051   -0.6613    0.0000 C   0  0  0  0  0  0  0  0  0  0  0  0
    8.6527   -3.8094    0.0000 C   0  0  0  0  0  0  0  0  0  0  0  0
    8.9601   -0.0000    0.0000 C   0  0  0  0  0  0  0  0  0  0  0  0
    9.3140   -2.6545    0.0000 C   0  0  0  0  0  0  0  0  0  0  0  0
  1  2  2  0  0  0  0 
  1  3  1  0  0  0  0 
  1  4  1  0  0  0  0 
  4  5  2  0  0  0  0 
  4  6  1  0  0  0  0 
  5  7  1  0  0  0  0 
  6  8  2  0  0  0  0 
  7  9  2  0  0  0  0 
  9  8  1  0  0  0  0 
  9 10  1  0  0  0  0 
 10 11  1  0  0  0  0 
 11 12  2  0  0  0  0 
 11 13  1  0  0  0  0 
 11 14  1  0  0  0  0 
 13 15  1  0  0  0  0 
 14 16  1  0  0  0  0 
 15 17  1  0  0  0  0 
 16 18  1  0  0  0  0 
M  END
> <Name>
Phosphorothioic acid, O,O-diethyl O-(4-(methylsulfinyl)phenyl) ester

> <Source>
DSSTox2DMolFile

> <Tox>
3.855

> <CAS>
115-90-2

$$$$

  CDK

 12 11  0  0  0  0  0  0  0  0999 V2000
    0.8456   -0.6672    0.0000 C   0  0  0  0  0  0  0  0  0  0  0  0
    1.9938   -1.3343    0.0000 C   0  0  0  0  0  0  0  0  0  0  0  0
    3.1497   -1.9938    0.0000 C   0  0  0  0  0  0  0  0  0  0  0  0
    1.3343   -2.4825    0.0000 S   0  0  0  0  0  0  0  0  0  0  0  0
    2.6609   -0.1784    0.0000 C   0  0  0  0  0  0  0  0  0  0  0  0
    4.2978   -1.3343    0.0000 N   0  0  0  0  0  0  0  0  0  0  0  0
    0.0000   -2.4825    0.0000 C   0  0  0  0  0  0  0  0  0  0  0  0
    5.4537   -1.9938    0.0000 O   0  0  0  0  0  0  0  0  0  0  0  0
    6.6019   -1.3343    0.0000 C   0  0  0  0  0  0  0  0  0  0  0  0
    6.6019   -0.0000    0.0000 O   0  0  0  0  0  0  0  0  0  0  0  0
    7.7578   -1.9938    0.0000 N   0  0  0  0  0  0  0  0  0  0  0  0
    7.7578   -3.3281    0.0000 C   0  0  0  0  0  0  0  0  0  0  0  0
  1  2  1  0  0  0  0 
  2  3  1  0  0  0  0 
  2  4  1  0  0  0  0 
  2  5  1  0  0  0  0 
  3  6  2  0  0  0  0 
  4  7  1  0  0  0  0 
  6  8  1  0  0  0  0 
  8  9  1  0  0  0  0 
  9 10  2  0  0  0  0 
  9 11  1  0  0  0  0 
 11 12  1  0  0  0  0 
M  END
> <Name>
Propionaldehyde, 2-methyl-2-(methylthio)-, O-(methylcarbamoyl)oxime

> <Source>
DSSTox2DMolFile

> <Tox>
5.171

> <CAS>
116-06-3

$$$$

  CDK

 14 15  0  0  0  0  0  0  0  0999 V2000
    0.0000   -3.9911    0.0000 O   0  0  0  0  0  0  0  0  0  0  0  0
    1.1489   -3.3269    0.0000 C   0  0  0  0  0  0  0  0  0  0  0  0
    2.3037   -3.9911    0.0000 C   0  0  0  0  0  0  0  0  0  0  0  0
    1.1489   -1.9925    0.0000 C   0  0  0  0  0  0  0  0  0  0  0  0
    3.4526   -3.3269    0.0000 C   0  0  0  0  0  0  0  0  0  0  0  0
    2.3037   -5.3194    0.0000 C   0  0  0  0  0  0  0  0  0  0  0  0
    2.3037   -1.3284    0.0000 C   0  0  0  0  0  0  0  0  0  0  0  0
    0.0000   -1.3284    0.0000 Cl  0  0  0  0  0  0  0  0  0  0  0  0
    4.6074   -3.9911    0.0000 C   0  0  0  0  0  0  0  0  0  0  0  0
    3.4526   -1.9925    0.0000 C   0  0  0  0  0  0  0  0  0  0  0  0
    3.4526   -5.9836    0.0000 C   0  0  0  0  0  0  0  0  0  0  0  0
    2.3037   -0.0000    0.0000 Cl  0  0  0  0  0  0  0  0  0  0  0  0
    4.6074   -5.3194    0.0000 C   0  0  0  0  0  0  0  0  0  0  0  0
    4.6074   -1.3284    0.0000 O   0  0  0  0  0  0  0  0  0  0  0  0
  1  2  2  0  0  0  0 
  2  3  1  0  0  0  0 
  2  4  1  0  0  0  0 
  3  5  2  0  0  0  0 
  3  6  1  0  0  0  0 
  7  4  2  0  0  0  0 
  4  8  1  0  0  0  0 
  5  9  1  0  0  0  0 
  5 10  1  0  0  0  0 
 11  6  2  0  0  0  0 
 10  7  1  0  0  0  0 
  7 12  1  0  0  0  0 
  9 13  2  0  0  0  0 
 10 14  2  0  0  0  0 
 13 11  1  0  0  0  0 
M  END
> <Name>
1,4-Naphthalenedione, 2,3-dichloro-

> <Source>
DSSTox2DMolFile

> <Tox>
6.180

> <CAS>
117-80-6

$$$$

  CDK

 28 28  0  0  0  0  0  0  0  0999 V2000
    7.9814   -3.4555    0.0000 O   0  0  0  0  0  0  0  0  0  0  0  0
    7.3086   -4.6023    0.0000 C   0  0  0  0  0  0  0  0  0  0  0  0
    7.9814   -5.7490    0.0000 C   0  0  0  0  0  0  0  0  0  0  0  0
    5.9784   -4.6023    0.0000 O   0  0  0  0  0  0  0  0  0  0  0  0
    9.3116   -5.7490    0.0000 C   0  0  0  0  0  0  0  0  0  0  0  0
    7.3086   -6.9111    0.0000 C   0  0  0  0  0  0  0  0  0  0  0  0
    5.3209   -3.4555    0.0000 C   0  0  0  0  0  0  0  0  0  0  0  0
    9.9691   -6.9111    0.0000 C   0  0  0  0  0  0  0  0  0  0  0  0
    9.9691   -4.6023    0.0000 C   0  0  0  0  0  0  0  0  0  0  0  0
    7.9814   -8.0578    0.0000 C   0  0  0  0  0  0  0  0  0  0  0  0
    3.9907   -3.4555    0.0000 C   0  0  0  0  0  0  0  0  0  0  0  0
    9.3116   -8.0578    0.0000 C   0  0  0  0  0  0  0  0  0  0  0  0
   11.2993   -4.6023    0.0000 O   0  0  0  0  0  0  0  0  0  0  0  0
    9.3116   -3.4555    0.0000 O   0  0  0  0  0  0  0  0  0  0  0  0
    3.3179   -4.6023    0.0000 C   0  0  0  0  0  0  0  0  0  0  0  0
    3.3179   -2.2935    0.0000 C   0  0  0  0  0  0  0  0  0  0  0  0
    9.9691   -2.2935    0.0000 C   0  0  0  0  0  0  0  0  0  0  0  0
    1.9877   -4.6023    0.0000 C   0  0  0  0  0  0  0  0  0  0  0  0
    1.9877   -2.2935    0.0000 C   0  0  0  0  0  0  0  0  0  0  0  0
   11.2993   -2.2935    0.0000 C   0  0  0  0  0  0  0  0  0  0  0  0
    1.3302   -5.7490    0.0000 C   0  0  0  0  0  0  0  0  0  0  0  0
   11.9721   -1.1467    0.0000 C   0  0  0  0  0  0  0  0  0  0  0  0
   11.9721   -3.4555    0.0000 C   0  0  0  0  0  0  0  0  0  0  0  0
    0.0000   -5.7490    0.0000 C   0  0  0  0  0  0  0  0  0  0  0  0
   13.3023   -1.1467    0.0000 C   0  0  0  0  0  0  0  0  0  0  0  0
   13.3023   -3.4555    0.0000 C   0  0  0  0  0  0  0  0  0  0  0  0
   13.9598   -0.0000    0.0000 C   0  0  0  0  0  0  0  0  0  0  0  0
   15.2900   -0.0000    0.0000 C   0  0  0  0  0  0  0  0  0  0  0  0
  1  2  2  0  0  0  0 
  2  3  1  0  0  0  0 
  2  4  1  0  0  0  0 
  3  5  2  0  0  0  0 
  3  6  1  0  0  0  0 
  4  7  1  0  0  0  0 
  5  8  1  0  0  0  0 
  5  9  1  0  0  0  0 
 10  6  2  0  0  0  0 
  7 11  1  0  0  0  0 
  8 12  2  0  0  0  0 
  9 13  2  0  0  0  0 
  9 14  1  0  0  0  0 
 12 10  1  0  0  0  0 
 11 15  1  0  0  0  0 
 11 16  1  0  0  0  0 
 14 17  1  0  0  0  0 
 15 18  1  0  0  0  0 
 16 19  1  0  0  0  0 
 17 20  1  0  0  0  0 
 18 21  1  0  0  0  0 
 20 22  1  0  0  0  0 
 20 23  1  0  0  0  0 
 21 24  1  0  0  0  0 
 22 25  1  0  0  0  0 
 23 26  1  0  0  0  0 
 25 27  1  0  0  0  0 
 27 28  1  0  0  0  0 
M  END
> <Name>
1,2-Benzenedicarboxylic acid, bis(2-ethylhexyl) ester

> <Source>
DSSTox2DMolFile

> <Tox>
2.548

> <CAS>
117-81-7

$$$$

  CDK

 16 17  0  0  0  0  0  0  0  0999 V2000
    1.9965   -3.4571    0.0000 C   0  0  0  0  0  0  0  0  0  0  0  0
    0.6655   -3.4571    0.0000 C   0  0  0  0  0  0  0  0  0  0  0  0
    2.6619   -2.3076    0.0000 C   0  0  0  0  0  0  0  0  0  0  0  0
    0.0000   -2.3076    0.0000 C   0  0  0  0  0  0  0  0  0  0  0  0
    1.9965   -1.1581    0.0000 C   0  0  0  0  0  0  0  0  0  0  0  0
    3.9929   -2.3076    0.0000 C   0  0  0  0  0  0  0  0  0  0  0  0
    0.6655   -1.1581    0.0000 C   0  0  0  0  0  0  0  0  0  0  0  0
    2.6619   -0.0000    0.0000 O   0  0  0  0  0  0  0  0  0  0  0  0
    4.6497   -3.4571    0.0000 O   0  0  0  0  0  0  0  0  0  0  0  0
    4.6497   -1.1581    0.0000 O   0  0  0  0  0  0  0  0  0  0  0  0
    5.9807   -1.1581    0.0000 C   0  0  0  0  0  0  0  0  0  0  0  0
    6.6462   -0.0000    0.0000 C   0  0  0  0  0  0  0  0  0  0  0  0
    6.6462   -2.3076    0.0000 C   0  0  0  0  0  0  0  0  0  0  0  0
    7.9772   -0.0000    0.0000 C   0  0  0  0  0  0  0  0  0  0  0  0
    7.9772   -2.3076    0.0000 C   0  0  0  0  0  0  0  0  0  0  0  0
    8.6426   -1.1581    0.0000 C   0  0  0  0  0  0  0  0  0  0  0  0
  1  2  2  0  0  0  0 
  1  3  1  0  0  0  0 
  2  4  1  0  0  0  0 
  5  3  2  0  0  0  0 
  3  6  1  0  0  0  0 
  4  7  2  0  0  0  0 
  7  5  1  0  0  0  0 
  5  8  1  0  0  0  0 
  6  9  2  0  0  0  0 
  6 10  1  0  0  0  0 
 10 11  1  0  0  0  0 
 11 12  2  0  0  0  0 
 11 13  1  0  0  0  0 
 12 14  1  0  0  0  0 
 15 13  2  0  0  0  0 
 14 16  2  0  0  0  0 
 16 15  1  0  0  0  0 
M  END
> <Name>
Benzoic acid, 2-hydroxy-, phenyl ester

> <Source>
DSSTox2DMolFile

> <Tox>
5.276

> <CAS>
118-55-8

$$$$

  CDK

 12 12  0  0  0  0  0  0  0  0999 V2000
    1.9947   -3.4576    0.0000 C   0  0  0  0  0  0  0  0  0  0  0  0
    0.6649   -3.4576    0.0000 C   0  0  0  0  0  0  0  0  0  0  0  0
    2.6597   -2.3073    0.0000 C   0  0  0  0  0  0  0  0  0  0  0  0
    0.0000   -2.3073    0.0000 C   0  0  0  0  0  0  0  0  0  0  0  0
    1.9947   -1.1569    0.0000 C   0  0  0  0  0  0  0  0  0  0  0  0
    3.9895   -2.3073    0.0000 C   0  0  0  0  0  0  0  0  0  0  0  0
    0.6649   -1.1569    0.0000 C   0  0  0  0  0  0  0  0  0  0  0  0
    2.6597   -0.0000    0.0000 O   0  0  0  0  0  0  0  0  0  0  0  0
    4.6544   -3.4576    0.0000 O   0  0  0  0  0  0  0  0  0  0  0  0
    4.6544   -1.1569    0.0000 O   0  0  0  0  0  0  0  0  0  0  0  0
    5.9842   -1.1569    0.0000 C   0  0  0  0  0  0  0  0  0  0  0  0
    6.6491   -0.0000    0.0000 C   0  0  0  0  0  0  0  0  0  0  0  0
  1  2  2  0  0  0  0 
  1  3  1  0  0  0  0 
  2  4  1  0  0  0  0 
  5  3  2  0  0  0  0 
  3  6  1  0  0  0  0 
  4  7  2  0  0  0  0 
  7  5  1  0  0  0  0 
  5  8  1  0  0  0  0 
  6  9  2  0  0  0  0 
  6 10  1  0  0  0  0 
 10 11  1  0  0  0  0 
 11 12  1  0  0  0  0 
M  END
> <Name>
Benzoic acid, 2-hydroxy-, ethyl ester

> <Source>
DSSTox2DMolFile

> <Tox>
3.924

> <CAS>
118-61-6

$$$$

  CDK

 10 10  0  0  0  0  0  0  0  0999 V2000
    5.3182   -2.3028    0.0000 O   0  0  0  0  0  0  0  0  0  0  0  0
    3.9887   -2.3028    0.0000 C   0  0  0  0  0  0  0  0  0  0  0  0
    3.3239   -3.4568    0.0000 C   0  0  0  0  0  0  0  0  0  0  0  0
    3.3239   -1.1487    0.0000 C   0  0  0  0  0  0  0  0  0  0  0  0
    3.9887   -4.6056    0.0000 Br  0  0  0  0  0  0  0  0  0  0  0  0
    1.9943   -3.4568    0.0000 C   0  0  0  0  0  0  0  0  0  0  0  0
    1.9943   -1.1487    0.0000 C   0  0  0  0  0  0  0  0  0  0  0  0
    3.9887   -0.0000    0.0000 Br  0  0  0  0  0  0  0  0  0  0  0  0
    1.3296   -2.3028    0.0000 C   0  0  0  0  0  0  0  0  0  0  0  0
    0.0000   -2.3028    0.0000 Br  0  0  0  0  0  0  0  0  0  0  0  0
  1  2  1  0  0  0  0 
  2  3  2  0  0  0  0 
  2  4  1  0  0  0  0 
  3  5  1  0  0  0  0 
  3  6  1  0  0  0  0 
  7  4  2  0  0  0  0 
  4  8  1  0  0  0  0 
  6  9  2  0  0  0  0 
  9  7  1  0  0  0  0 
  9 10  1  0  0  0  0 
M  END
> <Name>
Phenol, 2,4,6-tribromo-

> <Source>
DSSTox2DMolFile

> <Tox>
4.705

> <CAS>
118-79-6

$$$$

  CDK

 11 11  0  0  0  0  0  0  0  0999 V2000
    1.9968   -4.6079    0.0000 O   0  0  0  0  0  0  0  0  0  0  0  0
    2.6577   -3.4583    0.0000 C   0  0  0  0  0  0  0  0  0  0  0  0
    1.9968   -2.3039    0.0000 C   0  0  0  0  0  0  0  0  0  0  0  0
    3.9889   -3.4583    0.0000 C   0  0  0  0  0  0  0  0  0  0  0  0
    2.6577   -1.1543    0.0000 C   0  0  0  0  0  0  0  0  0  0  0  0
    0.6656   -2.3039    0.0000 N   0  0  0  0  0  0  0  0  0  0  0  0
    4.6544   -2.3039    0.0000 C   0  0  0  0  0  0  0  0  0  0  0  0
    3.9889   -1.1543    0.0000 C   0  0  0  0  0  0  0  0  0  0  0  0
    0.0000   -3.4583    0.0000 O   0  0  0  0  0  0  0  0  0  0  0  0
    0.0000   -1.1543    0.0000 O   0  0  0  0  0  0  0  0  0  0  0  0
    4.6544   -0.0000    0.0000 N   0  0  0  0  0  0  0  0  0  0  0  0
  1  2  1  0  0  0  0 
  2  3  2  0  0  0  0 
  2  4  1  0  0  0  0 
  3  5  1  0  0  0  0 
  3  6  1  0  0  0  0 
  7  4  2  0  0  0  0 
  5  8  2  0  0  0  0 
  6  9  2  0  0  0  0 
  6 10  1  0  0  0  0 
  8  7  1  0  0  0  0 
  8 11  1  0  0  0  0 
M  CHG  1   6   1
M  CHG  1  10  -1
M  END
> <Name>
Phenol, 4-amino-2-nitro-

> <Source>
DSSTox2DMolFile

> <Tox>
3.629

> <CAS>
119-34-6

$$$$

  CDK

 14 15  0  0  0  0  0  0  0  0999 V2000
    5.7567   -1.3269    0.0000 C   0  0  0  0  0  0  0  0  0  0  0  0
    6.9108   -1.9903    0.0000 C   0  0  0  0  0  0  0  0  0  0  0  0
    4.6095   -1.9903    0.0000 C   0  0  0  0  0  0  0  0  0  0  0  0
    6.9108   -3.3241    0.0000 C   0  0  0  0  0  0  0  0  0  0  0  0
    4.6095   -3.3241    0.0000 C   0  0  0  0  0  0  0  0  0  0  0  0
    3.4554   -1.3269    0.0000 C   0  0  0  0  0  0  0  0  0  0  0  0
    5.7567   -3.9875    0.0000 C   0  0  0  0  0  0  0  0  0  0  0  0
    3.4554   -0.0000    0.0000 O   0  0  0  0  0  0  0  0  0  0  0  0
    2.3013   -1.9903    0.0000 C   0  0  0  0  0  0  0  0  0  0  0  0
    2.3013   -3.3241    0.0000 C   0  0  0  0  0  0  0  0  0  0  0  0
    1.1541   -1.3269    0.0000 C   0  0  0  0  0  0  0  0  0  0  0  0
    1.1541   -3.9875    0.0000 C   0  0  0  0  0  0  0  0  0  0  0  0
    0.0000   -1.9903    0.0000 C   0  0  0  0  0  0  0  0  0  0  0  0
    0.0000   -3.3241    0.0000 C   0  0  0  0  0  0  0  0  0  0  0  0
  1  2  2  0  0  0  0 
  1  3  1  0  0  0  0 
  2  4  1  0  0  0  0 
  5  3  2  0  0  0  0 
  3  6  1  0  0  0  0 
  4  7  2  0  0  0  0 
  7  5  1  0  0  0  0 
  6  8  2  0  0  0  0 
  6  9  1  0  0  0  0 
  9 10  2  0  0  0  0 
  9 11  1  0  0  0  0 
 10 12  1  0  0  0  0 
 13 11  2  0  0  0  0 
 12 14  2  0  0  0  0 
 14 13  1  0  0  0  0 
M  END
> <Name>
Methanone, diphenyl-

> <Source>
DSSTox2DMolFile

> <Tox>
4.092

> <CAS>
119-61-9

$$$$

  CDK

 13 13  0  0  0  0  0  0  0  0999 V2000
    1.9954   -3.4587    0.0000 C   0  0  0  0  0  0  0  0  0  0  0  0
    0.6651   -3.4587    0.0000 C   0  0  0  0  0  0  0  0  0  0  0  0
    2.6606   -2.3080    0.0000 C   0  0  0  0  0  0  0  0  0  0  0  0
    0.0000   -2.3080    0.0000 C   0  0  0  0  0  0  0  0  0  0  0  0
    1.9954   -1.1573    0.0000 C   0  0  0  0  0  0  0  0  0  0  0  0
    3.9909   -2.3080    0.0000 N   0  0  0  0  0  0  0  0  0  0  0  0
    0.6651   -1.1573    0.0000 C   0  0  0  0  0  0  0  0  0  0  0  0
    4.6560   -1.1573    0.0000 C   0  0  0  0  0  0  0  0  0  0  0  0
    4.6560   -3.4587    0.0000 C   0  0  0  0  0  0  0  0  0  0  0  0
    5.9863   -1.1573    0.0000 C   0  0  0  0  0  0  0  0  0  0  0  0
    5.9863   -3.4587    0.0000 C   0  0  0  0  0  0  0  0  0  0  0  0
    6.6514   -0.0000    0.0000 O   0  0  0  0  0  0  0  0  0  0  0  0
    6.6514   -2.3080    0.0000 O   0  0  0  0  0  0  0  0  0  0  0  0
  1  2  2  0  0  0  0 
  1  3  1  0  0  0  0 
  2  4  1  0  0  0  0 
  5  3  2  0  0  0  0 
  3  6  1  0  0  0  0 
  4  7  2  0  0  0  0 
  7  5  1  0  0  0  0 
  6  8  1  0  0  0  0 
  6  9  1  0  0  0  0 
  8 10  1  0  0  0  0 
  9 11  1  0  0  0  0 
 10 12  1  0  0  0  0 
 11 13  1  0  0  0  0 
M  END
> <Name>
Ethanol, 2,2'-(phenylimino)bis-

> <Source>
DSSTox2DMolFile

> <Tox>
2.392

> <CAS>
120-07-0

$$$$

  CDK

 13 13  0  0  0  0  0  0  0  0999 V2000
    2.6566   -1.1488    0.0000 C   0  0  0  0  0  0  0  0  0  0  0  0
    3.9889   -1.1488    0.0000 C   0  0  0  0  0  0  0  0  0  0  0  0
    1.9945   -2.3056    0.0000 C   0  0  0  0  0  0  0  0  0  0  0  0
    4.6511   -2.3056    0.0000 C   0  0  0  0  0  0  0  0  0  0  0  0
    2.6566   -3.4544    0.0000 C   0  0  0  0  0  0  0  0  0  0  0  0
    0.6622   -2.3056    0.0000 C   0  0  0  0  0  0  0  0  0  0  0  0
    3.9889   -3.4544    0.0000 C   0  0  0  0  0  0  0  0  0  0  0  0
    5.9834   -2.3056    0.0000 N   0  0  0  0  0  0  0  0  0  0  0  0
    0.0000   -3.4544    0.0000 O   0  0  0  0  0  0  0  0  0  0  0  0
    6.6455   -3.4544    0.0000 C   0  0  0  0  0  0  0  0  0  0  0  0
    6.6455   -1.1488    0.0000 C   0  0  0  0  0  0  0  0  0  0  0  0
    7.9778   -3.4544    0.0000 C   0  0  0  0  0  0  0  0  0  0  0  0
    5.9834   -0.0000    0.0000 C   0  0  0  0  0  0  0  0  0  0  0  0
  1  2  2  0  0  0  0 
  1  3  1  0  0  0  0 
  2  4  1  0  0  0  0 
  3  5  2  0  0  0  0 
  3  6  1  0  0  0  0 
  4  7  2  0  0  0  0 
  4  8  1  0  0  0  0 
  7  5  1  0  0  0  0 
  6  9  2  0  0  0  0 
  8 10  1  0  0  0  0 
  8 11  1  0  0  0  0 
 10 12  1  0  0  0  0 
 11 13  1  0  0  0  0 
M  END
> <Name>
Benzaldehyde, p-(diethylamino)- (8CI)

> <Source>
DSSTox2DMolFile

> <Tox>
3.870

> <CAS>
120-21-8

$$$$

  CDK

 22 23  0  0  0  0  0  0  0  0999 V2000
    9.2189   -0.0000    0.0000 C   0  0  0  0  0  0  0  0  0  0  0  0
    9.2189   -1.3384    0.0000 C   0  0  0  0  0  0  0  0  0  0  0  0
   10.3697   -2.0014    0.0000 C   0  0  0  0  0  0  0  0  0  0  0  0
    8.0681   -2.0014    0.0000 S   0  0  0  0  0  0  0  0  0  0  0  0
   10.3697   -3.3273    0.0000 C   0  0  0  0  0  0  0  0  0  0  0  0
    6.9173   -1.3384    0.0000 O   0  0  0  0  0  0  0  0  0  0  0  0
    8.0681   -3.3273    0.0000 C   0  0  0  0  0  0  0  0  0  0  0  0
   11.5205   -3.9903    0.0000 C   0  0  0  0  0  0  0  0  0  0  0  0
    9.2189   -3.9903    0.0000 C   0  0  0  0  0  0  0  0  0  0  0  0
    6.9173   -3.9903    0.0000 C   0  0  0  0  0  0  0  0  0  0  0  0
   11.5205   -5.3287    0.0000 C   0  0  0  0  0  0  0  0  0  0  0  0
    9.2189   -5.3287    0.0000 C   0  0  0  0  0  0  0  0  0  0  0  0
    5.7540   -3.3273    0.0000 C   0  0  0  0  0  0  0  0  0  0  0  0
   10.3697   -5.9917    0.0000 C   0  0  0  0  0  0  0  0  0  0  0  0
   12.5087   -6.2168    0.0000 O   0  0  0  0  0  0  0  0  0  0  0  0
    4.6032   -3.9903    0.0000 C   0  0  0  0  0  0  0  0  0  0  0  0
   10.6449   -7.2926    0.0000 O   0  0  0  0  0  0  0  0  0  0  0  0
   11.9708   -7.4302    0.0000 C   0  0  0  0  0  0  0  0  0  0  0  0
    3.4524   -3.3273    0.0000 C   0  0  0  0  0  0  0  0  0  0  0  0
    2.3016   -3.9903    0.0000 C   0  0  0  0  0  0  0  0  0  0  0  0
    1.1508   -3.3273    0.0000 C   0  0  0  0  0  0  0  0  0  0  0  0
    0.0000   -3.9903    0.0000 C   0  0  0  0  0  0  0  0  0  0  0  0
  1  2  1  0  0  0  0 
  2  3  1  0  0  0  0 
  2  4  1  0  0  0  0 
  3  5  1  0  0  0  0 
  4  6  2  0  0  0  0 
  4  7  1  0  0  0  0 
  5  8  2  0  0  0  0 
  5  9  1  0  0  0  0 
  7 10  1  0  0  0  0 
  8 11  1  0  0  0  0 
 12  9  2  0  0  0  0 
 10 13  1  0  0  0  0 
 11 14  2  0  0  0  0 
 11 15  1  0  0  0  0 
 14 12  1  0  0  0  0 
 13 16  1  0  0  0  0 
 14 17  1  0  0  0  0 
 18 15  1  0  0  0  0 
 16 19  1  0  0  0  0 
 17 18  1  0  0  0  0 
 19 20  1  0  0  0  0 
 20 21  1  0  0  0  0 
 21 22  1  0  0  0  0 
M  END
> <Name>
Benzene, 1,2-(methylenedioxy)-4-(2-(octylsulfinyl)propyl)-

> <Source>
DSSTox2DMolFile

> <Tox>
5.642

> <CAS>
120-62-7

$$$$

  CDK

  8  8  0  0  0  0  0  0  0  0999 V2000
    0.0000   -2.3027    0.0000 O   0  0  0  0  0  0  0  0  0  0  0  0
    1.3289   -2.3027    0.0000 C   0  0  0  0  0  0  0  0  0  0  0  0
    1.9954   -1.1533    0.0000 C   0  0  0  0  0  0  0  0  0  0  0  0
    1.9954   -3.4560    0.0000 C   0  0  0  0  0  0  0  0  0  0  0  0
    3.3243   -1.1533    0.0000 C   0  0  0  0  0  0  0  0  0  0  0  0
    1.3289   -0.0000    0.0000 O   0  0  0  0  0  0  0  0  0  0  0  0
    3.3243   -3.4560    0.0000 C   0  0  0  0  0  0  0  0  0  0  0  0
    3.9907   -2.3027    0.0000 C   0  0  0  0  0  0  0  0  0  0  0  0
  1  2  1  0  0  0  0 
  2  3  2  0  0  0  0 
  2  4  1  0  0  0  0 
  3  5  1  0  0  0  0 
  3  6  1  0  0  0  0 
  7  4  2  0  0  0  0 
  5  8  2  0  0  0  0 
  8  7  1  0  0  0  0 
M  END
> <Name>
1,2-Benzenediol

> <Source>
DSSTox2DMolFile

> <Tox>
4.287

> <CAS>
120-80-9

$$$$

  CDK

  9  9  0  0  0  0  0  0  0  0999 V2000
    4.6082   -0.0000    0.0000 Cl  0  0  0  0  0  0  0  0  0  0  0  0
    3.4561   -0.6636    0.0000 C   0  0  0  0  0  0  0  0  0  0  0  0
    3.4561   -1.9953    0.0000 C   0  0  0  0  0  0  0  0  0  0  0  0
    2.3041   -0.0000    0.0000 C   0  0  0  0  0  0  0  0  0  0  0  0
    4.6082   -2.6589    0.0000 Cl  0  0  0  0  0  0  0  0  0  0  0  0
    2.3041   -2.6589    0.0000 C   0  0  0  0  0  0  0  0  0  0  0  0
    1.1520   -0.6636    0.0000 C   0  0  0  0  0  0  0  0  0  0  0  0
    1.1520   -1.9953    0.0000 C   0  0  0  0  0  0  0  0  0  0  0  0
    0.0000   -2.6589    0.0000 Cl  0  0  0  0  0  0  0  0  0  0  0  0
  1  2  1  0  0  0  0 
  2  3  2  0  0  0  0 
  2  4  1  0  0  0  0 
  3  5  1  0  0  0  0 
  3  6  1  0  0  0  0 
  7  4  2  0  0  0  0 
  6  8  2  0  0  0  0 
  8  7  1  0  0  0  0 
  8  9  1  0  0  0  0 
M  END
> <Name>
Benzene, 1,2,4-trichloro-

> <Source>
DSSTox2DMolFile

> <Tox>
4.800

> <CAS>
120-82-1

$$$$

  CDK

 13 13  0  0  0  0  0  0  0  0999 V2000
    5.7563   -0.0000    0.0000 C   0  0  0  0  0  0  0  0  0  0  0  0
    4.6092   -0.6634    0.0000 C   0  0  0  0  0  0  0  0  0  0  0  0
    4.6092   -1.9902    0.0000 C   0  0  0  0  0  0  0  0  0  0  0  0
    3.4552   -0.0000    0.0000 C   0  0  0  0  0  0  0  0  0  0  0  0
    5.7563   -2.6605    0.0000 N   0  0  0  0  0  0  0  0  0  0  0  0
    3.4552   -2.6605    0.0000 C   0  0  0  0  0  0  0  0  0  0  0  0
    2.3011   -0.6634    0.0000 C   0  0  0  0  0  0  0  0  0  0  0  0
    6.9103   -1.9902    0.0000 O   0  0  0  0  0  0  0  0  0  0  0  0
    5.7563   -3.9873    0.0000 O   0  0  0  0  0  0  0  0  0  0  0  0
    2.3011   -1.9902    0.0000 C   0  0  0  0  0  0  0  0  0  0  0  0
    1.1540   -2.6605    0.0000 N   0  0  0  0  0  0  0  0  0  0  0  0
    0.0000   -1.9902    0.0000 O   0  0  0  0  0  0  0  0  0  0  0  0
    1.1540   -3.9873    0.0000 O   0  0  0  0  0  0  0  0  0  0  0  0
  1  2  1  0  0  0  0 
  2  3  2  0  0  0  0 
  2  4  1  0  0  0  0 
  3  5  1  0  0  0  0 
  3  6  1  0  0  0  0 
  7  4  2  0  0  0  0 
  5  8  1  0  0  0  0 
  5  9  2  0  0  0  0 
  6 10  2  0  0  0  0 
 10  7  1  0  0  0  0 
 10 11  1  0  0  0  0 
 11 12  1  0  0  0  0 
 11 13  2  0  0  0  0 
M  CHG  1   5   1
M  CHG  1   8  -1
M  CHG  1  11   1
M  CHG  1  12  -1
M  END
> <Name>
Benzene, 1-methyl-2,4-dinitro-

> <Source>
DSSTox2DMolFile

> <Tox>
3.769

> <CAS>
121-14-2

$$$$

  CDK

 12 12  0  0  0  0  0  0  0  0999 V2000
    8.0680   -2.0009    0.0000 O   0  0  0  0  0  0  0  0  0  0  0  0
    6.9143   -2.6624    0.0000 C   0  0  0  0  0  0  0  0  0  0  0  0
    5.7605   -2.0009    0.0000 C   0  0  0  0  0  0  0  0  0  0  0  0
    4.6068   -2.6624    0.0000 C   0  0  0  0  0  0  0  0  0  0  0  0
    5.7605   -0.6696    0.0000 C   0  0  0  0  0  0  0  0  0  0  0  0
    3.4612   -2.0009    0.0000 C   0  0  0  0  0  0  0  0  0  0  0  0
    4.6068   -0.0000    0.0000 C   0  0  0  0  0  0  0  0  0  0  0  0
    2.3074   -2.6624    0.0000 O   0  0  0  0  0  0  0  0  0  0  0  0
    3.4612   -0.6696    0.0000 C   0  0  0  0  0  0  0  0  0  0  0  0
    1.1537   -2.0009    0.0000 C   0  0  0  0  0  0  0  0  0  0  0  0
    2.3074   -0.0000    0.0000 O   0  0  0  0  0  0  0  0  0  0  0  0
    0.0000   -2.6624    0.0000 C   0  0  0  0  0  0  0  0  0  0  0  0
  1  2  2  0  0  0  0 
  2  3  1  0  0  0  0 
  3  4  2  0  0  0  0 
  3  5  1  0  0  0  0 
  4  6  1  0  0  0  0 
  7  5  2  0  0  0  0 
  6  8  1  0  0  0  0 
  6  9  2  0  0  0  0 
  9  7  1  0  0  0  0 
  8 10  1  0  0  0  0 
  9 11  1  0  0  0  0 
 10 12  1  0  0  0  0 
M  END
> <Name>
Benzaldehyde, 3-ethoxy-4-hydroxy-

> <Source>
DSSTox2DMolFile

> <Tox>
3.278

> <CAS>
121-32-4

$$$$

  CDK

 11 11  0  0  0  0  0  0  0  0999 V2000
    5.3217   -2.6609    0.0000 O   0  0  0  0  0  0  0  0  0  0  0  0
    5.3217   -1.3304    0.0000 S   0  0  0  0  0  0  0  0  0  0  0  0
    5.3217   -0.0000    0.0000 O   0  0  0  0  0  0  0  0  0  0  0  0
    6.6521   -1.3304    0.0000 O   0  0  0  0  0  0  0  0  0  0  0  0
    3.9913   -1.3304    0.0000 C   0  0  0  0  0  0  0  0  0  0  0  0
    3.3261   -2.4813    0.0000 C   0  0  0  0  0  0  0  0  0  0  0  0
    3.3261   -0.1796    0.0000 C   0  0  0  0  0  0  0  0  0  0  0  0
    1.9956   -2.4813    0.0000 C   0  0  0  0  0  0  0  0  0  0  0  0
    1.9956   -0.1796    0.0000 C   0  0  0  0  0  0  0  0  0  0  0  0
    1.3304   -1.3304    0.0000 C   0  0  0  0  0  0  0  0  0  0  0  0
    0.0000   -1.3304    0.0000 N   0  0  0  0  0  0  0  0  0  0  0  0
  1  2  2  0  0  0  0 
  2  3  2  0  0  0  0 
  2  4  1  0  0  0  0 
  2  5  1  0  0  0  0 
  5  6  2  0  0  0  0 
  5  7  1  0  0  0  0 
  6  8  1  0  0  0  0 
  9  7  2  0  0  0  0 
  8 10  2  0  0  0  0 
 10  9  1  0  0  0  0 
 10 11  1  0  0  0  0 
M  END
> <Name>
Benzenesulfonic acid, 4-amino-

> <Source>
DSSTox2DMolFile

> <Tox>
3.237

> <CAS>
121-57-3

$$$$

  CDK

 10 10  0  0  0  0  0  0  0  0999 V2000
    0.0000   -0.0000    0.0000 Cl  0  0  0  0  0  0  0  0  0  0  0  0
    0.6656   -1.1497    0.0000 C   0  0  0  0  0  0  0  0  0  0  0  0
    1.9968   -1.1497    0.0000 C   0  0  0  0  0  0  0  0  0  0  0  0
    0.0000   -2.3040    0.0000 C   0  0  0  0  0  0  0  0  0  0  0  0
    2.6577   -2.3040    0.0000 C   0  0  0  0  0  0  0  0  0  0  0  0
    0.6656   -3.4536    0.0000 C   0  0  0  0  0  0  0  0  0  0  0  0
    3.9889   -2.3040    0.0000 N   0  0  0  0  0  0  0  0  0  0  0  0
    1.9968   -3.4536    0.0000 C   0  0  0  0  0  0  0  0  0  0  0  0
    4.6545   -3.4536    0.0000 O   0  0  0  0  0  0  0  0  0  0  0  0
    4.6545   -1.1497    0.0000 O   0  0  0  0  0  0  0  0  0  0  0  0
  1  2  1  0  0  0  0 
  2  3  2  0  0  0  0 
  2  4  1  0  0  0  0 
  3  5  1  0  0  0  0 
  6  4  2  0  0  0  0 
  5  7  1  0  0  0  0 
  5  8  2  0  0  0  0 
  8  6  1  0  0  0  0 
  7  9  2  0  0  0  0 
  7 10  1  0  0  0  0 
M  CHG  1   7   1
M  CHG  1  10  -1
M  END
> <Name>
Benzene, 1-chloro-3-nitro-

> <Source>
DSSTox2DMolFile

> <Tox>
3.933

> <CAS>
121-73-3

$$$$

  CDK

 19 18  0  0  0  0  0  0  0  0999 V2000
    2.3016   -3.3167    0.0000 O   0  0  0  0  0  0  0  0  0  0  0  0
    3.4562   -3.9832    0.0000 C   0  0  0  0  0  0  0  0  0  0  0  0
    4.6031   -3.3167    0.0000 C   0  0  0  0  0  0  0  0  0  0  0  0
    3.4562   -5.3161    0.0000 O   0  0  0  0  0  0  0  0  0  0  0  0
    5.7578   -3.9832    0.0000 S   0  0  0  0  0  0  0  0  0  0  0  0
    4.6031   -1.9916    0.0000 C   0  0  0  0  0  0  0  0  0  0  0  0
    2.3016   -5.9748    0.0000 C   0  0  0  0  0  0  0  0  0  0  0  0
    5.7578   -5.3161    0.0000 P   0  0  0  0  0  0  0  0  0  0  0  0
    3.4562   -1.3251    0.0000 C   0  0  0  0  0  0  0  0  0  0  0  0
    2.3016   -7.3077    0.0000 C   0  0  0  0  0  0  0  0  0  0  0  0
    4.4249   -5.3161    0.0000 S   0  0  0  0  0  0  0  0  0  0  0  0
    7.0829   -5.3161    0.0000 O   0  0  0  0  0  0  0  0  0  0  0  0
    5.7578   -6.6412    0.0000 O   0  0  0  0  0  0  0  0  0  0  0  0
    3.4562   -0.0000    0.0000 O   0  0  0  0  0  0  0  0  0  0  0  0
    2.3016   -1.9916    0.0000 O   0  0  0  0  0  0  0  0  0  0  0  0
    7.7494   -4.1614    0.0000 C   0  0  0  0  0  0  0  0  0  0  0  0
    4.6031   -7.3077    0.0000 C   0  0  0  0  0  0  0  0  0  0  0  0
    1.1547   -1.3251    0.0000 C   0  0  0  0  0  0  0  0  0  0  0  0
    0.0000   -1.9916    0.0000 C   0  0  0  0  0  0  0  0  0  0  0  0
  1  2  2  0  0  0  0 
  2  3  1  0  0  0  0 
  2  4  1  0  0  0  0 
  3  5  1  0  0  0  0 
  3  6  1  0  0  0  0 
  4  7  1  0  0  0  0 
  5  8  1  0  0  0  0 
  6  9  1  0  0  0  0 
  7 10  1  0  0  0  0 
  8 11  2  0  0  0  0 
  8 12  1  0  0  0  0 
  8 13  1  0  0  0  0 
  9 14  2  0  0  0  0 
  9 15  1  0  0  0  0 
 12 16  1  0  0  0  0 
 13 17  1  0  0  0  0 
 15 18  1  0  0  0  0 
 18 19  1  0  0  0  0 
M  END
> <Name>
Succinic acid, mercapto-, diethyl ester, S-ester with O,O-dimethylphosphorodithioate

> <Source>
DSSTox2DMolFile

> <Tox>
4.422

> <CAS>
121-75-5

$$$$

  CDK

 15 15  0  0  0  0  0  0  0  0999 V2000
    2.2975   -3.9947    0.0000 N   0  0  0  0  0  0  0  0  0  0  0  0
    1.1384   -4.6640    0.0000 N   0  0  0  0  0  0  0  0  0  0  0  0
    2.2975   -2.6494    0.0000 C   0  0  0  0  0  0  0  0  0  0  0  0
    3.4497   -4.6502    0.0000 C   0  0  0  0  0  0  0  0  0  0  0  0
    0.0000   -3.9947    0.0000 O   0  0  0  0  0  0  0  0  0  0  0  0
    1.1384   -5.9887    0.0000 O   0  0  0  0  0  0  0  0  0  0  0  0
    3.4497   -1.9939    0.0000 N   0  0  0  0  0  0  0  0  0  0  0  0
    4.6019   -3.9947    0.0000 N   0  0  0  0  0  0  0  0  0  0  0  0
    3.4497   -0.6692    0.0000 N   0  0  0  0  0  0  0  0  0  0  0  0
    4.6019   -2.6494    0.0000 C   0  0  0  0  0  0  0  0  0  0  0  0
    5.7610   -4.6640    0.0000 N   0  0  0  0  0  0  0  0  0  0  0  0
    4.6019   -0.0000    0.0000 O   0  0  0  0  0  0  0  0  0  0  0  0
    2.2975   -0.0000    0.0000 O   0  0  0  0  0  0  0  0  0  0  0  0
    5.7610   -5.9887    0.0000 O   0  0  0  0  0  0  0  0  0  0  0  0
    6.8994   -3.9947    0.0000 O   0  0  0  0  0  0  0  0  0  0  0  0
  1  2  1  0  0  0  0 
  1  3  1  0  0  0  0 
  1  4  1  0  0  0  0 
  2  5  1  0  0  0  0 
  2  6  2  0  0  0  0 
  7  3  1  0  0  0  0 
  8  4  1  0  0  0  0 
  7  9  1  0  0  0  0 
  7 10  1  0  0  0  0 
  8 11  1  0  0  0  0 
  8 10  1  0  0  0  0 
  9 12  1  0  0  0  0 
  9 13  2  0  0  0  0 
 11 14  1  0  0  0  0 
 11 15  2  0  0  0  0 
M  CHG  1   2   1
M  CHG  1   5  -1
M  CHG  1   9   1
M  CHG  1  11   1
M  CHG  1  12  -1
M  CHG  1  14  -1
M  END
> <Name>
1,3,5-Triazine, hexahydro-1,3,5-trinitro-

> <Source>
DSSTox2DMolFile

> <Tox>
4.305

> <CAS>
121-82-4

$$$$

  CDK

 11 11  0  0  0  0  0  0  0  0999 V2000
    0.0000   -2.3037    0.0000 N   0  0  0  0  0  0  0  0  0  0  0  0
    1.3283   -2.3037    0.0000 C   0  0  0  0  0  0  0  0  0  0  0  0
    1.9925   -1.1488    0.0000 C   0  0  0  0  0  0  0  0  0  0  0  0
    1.9925   -3.4525    0.0000 C   0  0  0  0  0  0  0  0  0  0  0  0
    1.3283   -0.0000    0.0000 Cl  0  0  0  0  0  0  0  0  0  0  0  0
    3.3269   -1.1488    0.0000 C   0  0  0  0  0  0  0  0  0  0  0  0
    3.3269   -3.4525    0.0000 C   0  0  0  0  0  0  0  0  0  0  0  0
    3.9910   -2.3037    0.0000 C   0  0  0  0  0  0  0  0  0  0  0  0
    5.3194   -2.3037    0.0000 N   0  0  0  0  0  0  0  0  0  0  0  0
    5.9835   -1.1488    0.0000 O   0  0  0  0  0  0  0  0  0  0  0  0
    5.9835   -3.4525    0.0000 O   0  0  0  0  0  0  0  0  0  0  0  0
  1  2  1  0  0  0  0 
  2  3  2  0  0  0  0 
  2  4  1  0  0  0  0 
  3  5  1  0  0  0  0 
  3  6  1  0  0  0  0 
  7  4  2  0  0  0  0 
  6  8  2  0  0  0  0 
  8  7  1  0  0  0  0 
  8  9  1  0  0  0  0 
  9 10  1  0  0  0  0 
  9 11  2  0  0  0  0 
M  CHG  1   9   1
M  CHG  1  10  -1
M  END
> <Name>
Benzenamine, 2-chloro-4-nitro-

> <Source>
DSSTox2DMolFile

> <Tox>
3.927

> <CAS>
121-87-9

$$$$

  CDK

 17 17  0  0  0  0  0  0  0  0999 V2000
    7.5809   -4.4675    0.0000 S   0  0  0  0  0  0  0  0  0  0  0  0
    6.9085   -3.3161    0.0000 P   0  0  0  0  0  0  0  0  0  0  0  0
    5.7479   -3.9885    0.0000 O   0  0  0  0  0  0  0  0  0  0  0  0
    6.2453   -2.1647    0.0000 O   0  0  0  0  0  0  0  0  0  0  0  0
    8.0599   -2.6529    0.0000 O   0  0  0  0  0  0  0  0  0  0  0  0
    4.6149   -3.3161    0.0000 C   0  0  0  0  0  0  0  0  0  0  0  0
    6.9085   -1.0225    0.0000 C   0  0  0  0  0  0  0  0  0  0  0  0
    9.2114   -3.3161    0.0000 C   0  0  0  0  0  0  0  0  0  0  0  0
    3.4635   -3.9885    0.0000 C   0  0  0  0  0  0  0  0  0  0  0  0
    4.6149   -1.9804    0.0000 C   0  0  0  0  0  0  0  0  0  0  0  0
    2.3028   -3.3161    0.0000 C   0  0  0  0  0  0  0  0  0  0  0  0
    3.4635   -1.3264    0.0000 C   0  0  0  0  0  0  0  0  0  0  0  0
    2.3028   -1.9804    0.0000 C   0  0  0  0  0  0  0  0  0  0  0  0
    1.1514   -3.9885    0.0000 C   0  0  0  0  0  0  0  0  0  0  0  0
    1.1514   -1.3264    0.0000 N   0  0  0  0  0  0  0  0  0  0  0  0
    1.1514   -0.0000    0.0000 O   0  0  0  0  0  0  0  0  0  0  0  0
    0.0000   -1.9804    0.0000 O   0  0  0  0  0  0  0  0  0  0  0  0
  1  2  2  0  0  0  0 
  2  3  1  0  0  0  0 
  2  4  1  0  0  0  0 
  2  5  1  0  0  0  0 
  3  6  1  0  0  0  0 
  4  7  1  0  0  0  0 
  5  8  1  0  0  0  0 
  6  9  1  0  0  0  0 
  6 10  2  0  0  0  0 
  9 11  2  0  0  0  0 
 12 10  1  0  0  0  0 
 11 13  1  0  0  0  0 
 11 14  1  0  0  0  0 
 13 12  2  0  0  0  0 
 13 15  1  0  0  0  0 
 15 16  2  0  0  0  0 
 15 17  1  0  0  0  0 
M  CHG  1  15   1
M  CHG  1  17  -1
M  END
> <Name>
Phosphorothioic acid, O,O-dimethyl O-(3-methyl-4-nitrophenyl) ester

> <Source>
DSSTox2DMolFile

> <Tox>
4.809

> <CAS>
122-14-5

$$$$

  CDK

 13 14  0  0  0  0  0  0  0  0999 V2000
    1.1539   -2.6602    0.0000 C   0  0  0  0  0  0  0  0  0  0  0  0
    0.0000   -1.9969    0.0000 C   0  0  0  0  0  0  0  0  0  0  0  0
    2.3009   -1.9969    0.0000 C   0  0  0  0  0  0  0  0  0  0  0  0
    0.0000   -0.6633    0.0000 C   0  0  0  0  0  0  0  0  0  0  0  0
    2.3009   -0.6633    0.0000 C   0  0  0  0  0  0  0  0  0  0  0  0
    3.4548   -2.6602    0.0000 N   0  0  0  0  0  0  0  0  0  0  0  0
    1.1539   -0.0000    0.0000 C   0  0  0  0  0  0  0  0  0  0  0  0
    4.6087   -1.9969    0.0000 C   0  0  0  0  0  0  0  0  0  0  0  0
    4.6087   -0.6633    0.0000 C   0  0  0  0  0  0  0  0  0  0  0  0
    5.7557   -2.6602    0.0000 C   0  0  0  0  0  0  0  0  0  0  0  0
    5.7557   -0.0000    0.0000 C   0  0  0  0  0  0  0  0  0  0  0  0
    6.9096   -1.9969    0.0000 C   0  0  0  0  0  0  0  0  0  0  0  0
    6.9096   -0.6633    0.0000 C   0  0  0  0  0  0  0  0  0  0  0  0
  1  2  2  0  0  0  0 
  1  3  1  0  0  0  0 
  2  4  1  0  0  0  0 
  5  3  2  0  0  0  0 
  3  6  1  0  0  0  0 
  4  7  2  0  0  0  0 
  7  5  1  0  0  0  0 
  6  8  1  0  0  0  0 
  8  9  2  0  0  0  0 
  8 10  1  0  0  0  0 
  9 11  1  0  0  0  0 
 12 10  2  0  0  0  0 
 11 13  2  0  0  0  0 
 13 12  1  0  0  0  0 
M  END
> <Name>
Benzenamine, N-phenyl-

> <Source>
DSSTox2DMolFile

> <Tox>
4.650

> <CAS>
122-39-4

$$$$

  CDK

 10 10  0  0  0  0  0  0  0  0999 V2000
    1.1518   -2.6606    0.0000 C   0  0  0  0  0  0  0  0  0  0  0  0
    0.0000   -1.9984    0.0000 C   0  0  0  0  0  0  0  0  0  0  0  0
    2.3036   -1.9984    0.0000 C   0  0  0  0  0  0  0  0  0  0  0  0
    0.0000   -0.6680    0.0000 C   0  0  0  0  0  0  0  0  0  0  0  0
    2.3036   -0.6680    0.0000 C   0  0  0  0  0  0  0  0  0  0  0  0
    3.4554   -2.6606    0.0000 O   0  0  0  0  0  0  0  0  0  0  0  0
    1.1518   -0.0000    0.0000 C   0  0  0  0  0  0  0  0  0  0  0  0
    4.6072   -1.9984    0.0000 C   0  0  0  0  0  0  0  0  0  0  0  0
    4.6072   -0.6680    0.0000 C   0  0  0  0  0  0  0  0  0  0  0  0
    5.7590   -0.0000    0.0000 O   0  0  0  0  0  0  0  0  0  0  0  0
  1  2  2  0  0  0  0 
  1  3  1  0  0  0  0 
  2  4  1  0  0  0  0 
  5  3  2  0  0  0  0 
  3  6  1  0  0  0  0 
  4  7  2  0  0  0  0 
  7  5  1  0  0  0  0 
  6  8  1  0  0  0  0 
  8  9  1  0  0  0  0 
  9 10  1  0  0  0  0 
M  END
> <Name>
Ethanol, 2-phenoxy-

> <Source>
DSSTox2DMolFile

> <Tox>
2.604

> <CAS>
122-99-6

$$$$

  CDK

 12 11  0  0  0  0  0  0  0  0999 V2000
   -1.8826    0.4244   -0.0034 C   0  0  0  0  0  0  0  0  0  0  0  0
   -0.6300   -0.4224   -0.0037 C   0  0  0  0  0  0  0  0  0  0  0  0
   -1.9775    1.6364   -0.0082 O   0  0  0  0  0  0  0  0  0  0  0  0
   -3.0147   -0.3358    0.0032 O   0  0  0  0  0  0  0  0  0  0  0  0
    0.6305    0.4255   -0.0081 C   0  0  0  0  0  0  0  0  0  0  0  0
   -4.2817    0.3262    0.0038 C   0  0  0  0  0  0  0  0  0  0  0  0
    1.8823   -0.4225   -0.0053 C   0  0  0  0  0  0  0  0  0  0  0  0
   -5.3349   -0.7648    0.0107 C   0  0  0  0  0  0  0  0  0  0  0  0
    1.9748   -1.6348   -0.0089 O   0  0  0  0  0  0  0  0  0  0  0  0
    3.0157    0.3358    0.0020 O   0  0  0  0  0  0  0  0  0  0  0  0
    4.2816   -0.3284    0.0048 C   0  0  0  0  0  0  0  0  0  0  0  0
    5.3366    0.7609    0.0120 C   0  0  0  0  0  0  0  0  0  0  0  0
  1  2  1  0  0  0  0 
  1  3  2  0  0  0  0 
  1  4  1  0  0  0  0 
  2  5  1  0  0  0  0 
  4  6  1  0  0  0  0 
  5  7  1  0  0  0  0 
  6  8  1  0  0  0  0 
  7  9  2  0  0  0  0 
  7 10  1  0  0  0  0 
 10 11  1  0  0  0  0 
 11 12  1  0  0  0  0 
M  END
> <Name>
Butanedioic acid, diethyl ester

> <Source>
DougDB3DMolFile

> <Tox>
3.095

> <CAS>
123-25-1

$$$$

  CDK

  7  6  0  0  0  0  0  0  0  0999 V2000
    4.6073   -1.9950    0.0000 C   0  0  0  0  0  0  0  0  0  0  0  0
    3.4555   -1.3315    0.0000 C   0  0  0  0  0  0  0  0  0  0  0  0
    3.4555   -0.0000    0.0000 O   0  0  0  0  0  0  0  0  0  0  0  0
    2.3037   -1.9950    0.0000 C   0  0  0  0  0  0  0  0  0  0  0  0
    1.1518   -1.3315    0.0000 C   0  0  0  0  0  0  0  0  0  0  0  0
    1.1518   -0.0000    0.0000 O   0  0  0  0  0  0  0  0  0  0  0  0
    0.0000   -1.9950    0.0000 C   0  0  0  0  0  0  0  0  0  0  0  0
  1  2  1  0  0  0  0 
  2  3  2  0  0  0  0 
  2  4  1  0  0  0  0 
  4  5  1  0  0  0  0 
  5  6  2  0  0  0  0 
  5  7  1  0  0  0  0 
M  END
> <Name>
2,4-Pentanedione

> <Source>
DSSTox2DMolFile

> <Tox>
2.851

> <CAS>
123-54-6

$$$$

  CDK

 10  9  0  0  0  0  0  0  0  0999 V2000
    0.0000   -2.3050    0.0000 C   0  0  0  0  0  0  0  0  0  0  0  0
    0.6620   -1.1565    0.0000 C   0  0  0  0  0  0  0  0  0  0  0  0
    1.9940   -1.1565    0.0000 C   0  0  0  0  0  0  0  0  0  0  0  0
    2.6560   -0.0000    0.0000 C   0  0  0  0  0  0  0  0  0  0  0  0
    3.9879   -0.0000    0.0000 C   0  0  0  0  0  0  0  0  0  0  0  0
    4.6499   -1.1565    0.0000 C   0  0  0  0  0  0  0  0  0  0  0  0
    3.9879   -2.3050    0.0000 O   0  0  0  0  0  0  0  0  0  0  0  0
    5.9819   -1.1565    0.0000 O   0  0  0  0  0  0  0  0  0  0  0  0
    6.6439   -2.3050    0.0000 C   0  0  0  0  0  0  0  0  0  0  0  0
    7.9759   -2.3050    0.0000 C   0  0  0  0  0  0  0  0  0  0  0  0
  1  2  1  0  0  0  0 
  2  3  1  0  0  0  0 
  3  4  1  0  0  0  0 
  4  5  1  0  0  0  0 
  5  6  1  0  0  0  0 
  6  7  2  0  0  0  0 
  6  8  1  0  0  0  0 
  8  9  1  0  0  0  0 
  9 10  1  0  0  0  0 
M  END
> <Name>
Hexanoic acid, ethyl ester

> <Source>
DSSTox2DMolFile

> <Tox>
4.208

> <CAS>
123-66-0

$$$$

  CDK

  5  4  0  0  0  0  0  0  0  0999 V2000
    0.0000   -0.6638    0.0000 C   0  0  0  0  0  0  0  0  0  0  0  0
    1.1525   -0.0000    0.0000 C   0  0  0  0  0  0  0  0  0  0  0  0
    2.3050   -0.6638    0.0000 C   0  0  0  0  0  0  0  0  0  0  0  0
    3.4575   -0.0000    0.0000 C   0  0  0  0  0  0  0  0  0  0  0  0
    4.6099   -0.6638    0.0000 O   0  0  0  0  0  0  0  0  0  0  0  0
  1  2  1  0  0  0  0 
  2  3  1  0  0  0  0 
  3  4  1  0  0  0  0 
  4  5  2  0  0  0  0 
M  END
> <Name>
Butyraldehyde

> <Source>
DSSTox2DMolFile

> <Tox>
3.654

> <CAS>
123-72-8

$$$$

  CDK

  8  7  0  0  0  0  0  0  0  0999 V2000
    3.9913   -0.0000    0.0000 C   0  0  0  0  0  0  0  0  0  0  0  0
    4.6555   -1.1549    0.0000 C   0  0  0  0  0  0  0  0  0  0  0  0
    5.9839   -1.1549    0.0000 O   0  0  0  0  0  0  0  0  0  0  0  0
    3.9913   -2.3038    0.0000 O   0  0  0  0  0  0  0  0  0  0  0  0
    2.6569   -2.3038    0.0000 C   0  0  0  0  0  0  0  0  0  0  0  0
    1.9926   -1.1549    0.0000 C   0  0  0  0  0  0  0  0  0  0  0  0
    0.6642   -1.1549    0.0000 C   0  0  0  0  0  0  0  0  0  0  0  0
    0.0000   -0.0000    0.0000 C   0  0  0  0  0  0  0  0  0  0  0  0
  1  2  1  0  0  0  0 
  2  3  2  0  0  0  0 
  2  4  1  0  0  0  0 
  4  5  1  0  0  0  0 
  5  6  1  0  0  0  0 
  6  7  1  0  0  0  0 
  7  8  1  0  0  0  0 
M  END
> <Name>
Acetic acid, butyl ester

> <Source>
DSSTox2DMolFile

> <Tox>
3.810

> <CAS>
123-86-4

$$$$

  CDK

  6  6  0  0  0  0  0  0  0  0999 V2000
    2.3036   -1.9950    0.0000 C   0  0  0  0  0  0  0  0  0  0  0  0
    1.1518   -2.6600    0.0000 C   0  0  0  0  0  0  0  0  0  0  0  0
    2.3036   -0.6650    0.0000 O   0  0  0  0  0  0  0  0  0  0  0  0
    0.0000   -1.9950    0.0000 O   0  0  0  0  0  0  0  0  0  0  0  0
    1.1518   -0.0000    0.0000 C   0  0  0  0  0  0  0  0  0  0  0  0
    0.0000   -0.6650    0.0000 C   0  0  0  0  0  0  0  0  0  0  0  0
  1  2  1  0  0  0  0 
  1  3  1  0  0  0  0 
  2  4  1  0  0  0  0 
  5  3  1  0  0  0  0 
  4  6  1  0  0  0  0 
  6  5  1  0  0  0  0 
M  END
> <Name>
1,4-Dioxane

> <Source>
DSSTox2DMolFile

> <Tox>
0.931

> <CAS>
123-91-1

$$$$

  CDK

 10  9  0  0  0  0  0  0  0  0999 V2000
    0.0000   -1.3318    0.0000 O   0  0  0  0  0  0  0  0  0  0  0  0
    1.1542   -1.9936    0.0000 C   0  0  0  0  0  0  0  0  0  0  0  0
    2.3084   -1.3318    0.0000 C   0  0  0  0  0  0  0  0  0  0  0  0
    1.1542   -3.3254    0.0000 O   0  0  0  0  0  0  0  0  0  0  0  0
    3.4626   -1.9936    0.0000 C   0  0  0  0  0  0  0  0  0  0  0  0
    4.6087   -1.3318    0.0000 C   0  0  0  0  0  0  0  0  0  0  0  0
    5.7629   -1.9936    0.0000 C   0  0  0  0  0  0  0  0  0  0  0  0
    6.9171   -1.3318    0.0000 C   0  0  0  0  0  0  0  0  0  0  0  0
    8.0713   -1.9936    0.0000 O   0  0  0  0  0  0  0  0  0  0  0  0
    6.9171   -0.0000    0.0000 O   0  0  0  0  0  0  0  0  0  0  0  0
  1  2  1  0  0  0  0 
  2  3  1  0  0  0  0 
  2  4  2  0  0  0  0 
  3  5  1  0  0  0  0 
  5  6  1  0  0  0  0 
  6  7  1  0  0  0  0 
  7  8  1  0  0  0  0 
  8  9  1  0  0  0  0 
  8 10  2  0  0  0  0 
M  END
> <Name>
Hexanedioic acid

> <Source>
DSSTox2DMolFile

> <Tox>
3.178

> <CAS>
124-04-9

$$$$

  CDK

 13 12  0  0  0  0  0  0  0  0999 V2000
    0.0000   -0.6638    0.0000 C   0  0  0  0  0  0  0  0  0  0  0  0
    1.1479   -0.0000    0.0000 C   0  0  0  0  0  0  0  0  0  0  0  0
    2.3096   -0.6638    0.0000 C   0  0  0  0  0  0  0  0  0  0  0  0
    3.4575   -0.0000    0.0000 C   0  0  0  0  0  0  0  0  0  0  0  0
    4.6053   -0.6638    0.0000 C   0  0  0  0  0  0  0  0  0  0  0  0
    5.7670   -0.0000    0.0000 C   0  0  0  0  0  0  0  0  0  0  0  0
    6.9149   -0.6638    0.0000 C   0  0  0  0  0  0  0  0  0  0  0  0
    8.0628   -0.0000    0.0000 C   0  0  0  0  0  0  0  0  0  0  0  0
    9.2245   -0.6638    0.0000 C   0  0  0  0  0  0  0  0  0  0  0  0
   10.3724   -0.0000    0.0000 C   0  0  0  0  0  0  0  0  0  0  0  0
   11.5202   -0.6638    0.0000 C   0  0  0  0  0  0  0  0  0  0  0  0
   12.6819   -0.0000    0.0000 C   0  0  0  0  0  0  0  0  0  0  0  0
   13.8298   -0.6638    0.0000 N   0  0  0  0  0  0  0  0  0  0  0  0
  1  2  1  0  0  0  0 
  2  3  1  0  0  0  0 
  3  4  1  0  0  0  0 
  4  5  1  0  0  0  0 
  5  6  1  0  0  0  0 
  6  7  1  0  0  0  0 
  7  8  1  0  0  0  0 
  8  9  1  0  0  0  0 
  9 10  1  0  0  0  0 
 10 11  1  0  0  0  0 
 11 12  1  0  0  0  0 
 12 13  1  0  0  0  0 
M  END
> <Name>
1-Dodecanamine

> <Source>
DSSTox2DMolFile

> <Tox>
6.255

> <CAS>
124-22-1

$$$$

  CDK

 10  9  0  0  0  0  0  0  0  0999 V2000
    2.0017   -0.6579    0.0000 C   0  0  0  0  0  0  0  0  0  0  0  0
    2.0017   -1.9857    0.0000 C   0  0  0  0  0  0  0  0  0  0  0  0
    0.8493   -0.0000    0.0000 O   0  0  0  0  0  0  0  0  0  0  0  0
    3.3295   -1.9857    0.0000 C   0  0  0  0  0  0  0  0  0  0  0  0
    2.0017   -3.3136    0.0000 C   0  0  0  0  0  0  0  0  0  0  0  0
    0.6739   -1.9857    0.0000 N   0  0  0  0  0  0  0  0  0  0  0  0
    3.9874   -3.1381    0.0000 O   0  0  0  0  0  0  0  0  0  0  0  0
    0.8493   -3.9874    0.0000 O   0  0  0  0  0  0  0  0  0  0  0  0
    0.0000   -3.1381    0.0000 O   0  0  0  0  0  0  0  0  0  0  0  0
    0.0000   -0.8334    0.0000 O   0  0  0  0  0  0  0  0  0  0  0  0
  1  2  1  0  0  0  0 
  1  3  1  0  0  0  0 
  2  4  1  0  0  0  0 
  2  5  1  0  0  0  0 
  2  6  1  0  0  0  0 
  4  7  1  0  0  0  0 
  5  8  1  0  0  0  0 
  6  9  1  0  0  0  0 
  6 10  2  0  0  0  0 
M  CHG  1   6   1
M  CHG  1   9  -1
M  END
> <Name>
1,3-Propanediol, 2-(hydroxymethyl)-2-nitro-

> <Source>
DSSTox2DMolFile

> <Tox>
2.732

> <CAS>
126-11-4

$$$$

  CDK

 17 16  0  0  0  0  0  0  0  0999 V2000
    9.9273   -3.3256    0.0000 C   0  0  0  0  0  0  0  0  0  0  0  0
    8.7757   -3.9908    0.0000 C   0  0  0  0  0  0  0  0  0  0  0  0
    7.6241   -3.3256    0.0000 C   0  0  0  0  0  0  0  0  0  0  0  0
    6.4726   -3.9908    0.0000 C   0  0  0  0  0  0  0  0  0  0  0  0
    5.3210   -3.3256    0.0000 O   0  0  0  0  0  0  0  0  0  0  0  0
    5.3210   -1.9954    0.0000 P   0  0  0  0  0  0  0  0  0  0  0  0
    6.6513   -1.9954    0.0000 O   0  0  0  0  0  0  0  0  0  0  0  0
    3.9908   -1.9954    0.0000 O   0  0  0  0  0  0  0  0  0  0  0  0
    5.3210   -0.6651    0.0000 O   0  0  0  0  0  0  0  0  0  0  0  0
    3.3256   -3.1469    0.0000 C   0  0  0  0  0  0  0  0  0  0  0  0
    6.4726   -0.0000    0.0000 C   0  0  0  0  0  0  0  0  0  0  0  0
    1.9954   -3.1469    0.0000 C   0  0  0  0  0  0  0  0  0  0  0  0
    7.6241   -0.6651    0.0000 C   0  0  0  0  0  0  0  0  0  0  0  0
    1.3303   -4.2985    0.0000 C   0  0  0  0  0  0  0  0  0  0  0  0
    8.7757   -0.0000    0.0000 C   0  0  0  0  0  0  0  0  0  0  0  0
    0.0000   -4.2985    0.0000 C   0  0  0  0  0  0  0  0  0  0  0  0
    9.9273   -0.6651    0.0000 C   0  0  0  0  0  0  0  0  0  0  0  0
  1  2  1  0  0  0  0 
  2  3  1  0  0  0  0 
  3  4  1  0  0  0  0 
  4  5  1  0  0  0  0 
  5  6  1  0  0  0  0 
  6  7  2  0  0  0  0 
  6  8  1  0  0  0  0 
  6  9  1  0  0  0  0 
  8 10  1  0  0  0  0 
  9 11  1  0  0  0  0 
 10 12  1  0  0  0  0 
 11 13  1  0  0  0  0 
 12 14  1  0  0  0  0 
 13 15  1  0  0  0  0 
 14 16  1  0  0  0  0 
 15 17  1  0  0  0  0 
M  END
> <Name>
Phosphoric acid tributyl ester

> <Source>
DSSTox2DMolFile

> <Tox>
4.513

> <CAS>
126-73-8

$$$$

  CDK

 10 10  0  0  0  0  0  0  0  0999 V2000
    2.4645   -0.0000    0.0000 O   0  0  0  0  0  0  0  0  0  0  0  0
    2.4645   -1.3300    0.0000 C   0  0  0  0  0  0  0  0  0  0  0  0
    3.6134   -1.9974    0.0000 C   0  0  0  0  0  0  0  0  0  0  0  0
    1.3109   -1.9974    0.0000 C   0  0  0  0  0  0  0  0  0  0  0  0
    3.6134   -3.3274    0.0000 C   0  0  0  0  0  0  0  0  0  0  0  0
    1.3109   -3.3274    0.0000 C   0  0  0  0  0  0  0  0  0  0  0  0
    4.7670   -3.9900    0.0000 O   0  0  0  0  0  0  0  0  0  0  0  0
    2.4645   -3.9900    0.0000 C   0  0  0  0  0  0  0  0  0  0  0  0
    0.8533   -4.5763    0.0000 C   0  0  0  0  0  0  0  0  0  0  0  0
    0.0000   -3.0938    0.0000 C   0  0  0  0  0  0  0  0  0  0  0  0
  1  2  2  0  0  0  0 
  2  3  1  0  0  0  0 
  2  4  1  0  0  0  0 
  3  5  1  0  0  0  0 
  4  6  1  0  0  0  0 
  5  7  2  0  0  0  0 
  5  8  1  0  0  0  0 
  8  6  1  0  0  0  0 
  6  9  1  0  0  0  0 
  6 10  1  0  0  0  0 
M  END
> <Name>
1,3-Cyclohexanedione, 5,5-dimethyl-

> <Source>
DSSTox2DMolFile

> <Tox>
1.086

> <CAS>
126-81-8

$$$$

  CDK

  5  4  0  0  0  0  0  0  0  0999 V2000
    0.0000   -1.3438    0.0000 Cl  0  0  0  0  0  0  0  0  0  0  0  0
    1.1503   -2.0001    0.0000 C   0  0  0  0  0  0  0  0  0  0  0  0
    2.3041   -1.3438    0.0000 C   0  0  0  0  0  0  0  0  0  0  0  0
    2.3041   -0.0000    0.0000 O   0  0  0  0  0  0  0  0  0  0  0  0
    3.4544   -2.0001    0.0000 C   0  0  0  0  0  0  0  0  0  0  0  0
  1  2  1  0  0  0  0 
  2  3  1  0  0  0  0 
  3  4  1  0  0  0  0 
  3  5  1  0  0  0  0 
M  END
> <Name>
2-Propanol, 1-chloro-

> <Source>
DSSTox2DMolFile

> <Tox>
2.586

> <CAS>
127-00-4

$$$$

  CDK

  5  4  0  0  0  0  0  0  0  0999 V2000
    3.4567   -1.9945    0.0000 C   0  0  0  0  0  0  0  0  0  0  0  0
    2.3056   -1.3308    0.0000 C   0  0  0  0  0  0  0  0  0  0  0  0
    1.1511   -1.9945    0.0000 N   0  0  0  0  0  0  0  0  0  0  0  0
    2.3056   -0.0000    0.0000 C   0  0  0  0  0  0  0  0  0  0  0  0
    0.0000   -1.3308    0.0000 O   0  0  0  0  0  0  0  0  0  0  0  0
  1  2  1  0  0  0  0 
  2  3  2  0  0  0  0 
  2  4  1  0  0  0  0 
  3  5  1  0  0  0  0 
M  END
> <Name>
2-Propanone, oxime

> <Source>
DSSTox2DMolFile

> <Tox>
2.117

> <CAS>
127-06-0

$$$$

  CDK

  6  5  0  0  0  0  0  0  0  0999 V2000
    1.3307   -0.0000    0.0000 Cl  0  0  0  0  0  0  0  0  0  0  0  0
    1.9943   -1.1509    0.0000 C   0  0  0  0  0  0  0  0  0  0  0  0
    1.3307   -2.3053    0.0000 C   0  0  0  0  0  0  0  0  0  0  0  0
    3.3250   -1.1509    0.0000 Cl  0  0  0  0  0  0  0  0  0  0  0  0
    1.9943   -3.4563    0.0000 Cl  0  0  0  0  0  0  0  0  0  0  0  0
    0.0000   -2.3053    0.0000 Cl  0  0  0  0  0  0  0  0  0  0  0  0
  1  2  1  0  0  0  0 
  2  3  2  0  0  0  0 
  2  4  1  0  0  0  0 
  3  5  1  0  0  0  0 
  3  6  1  0  0  0  0 
M  END
> <Name>
1,1,2,2-Tetrachloroethylene

> <Source>
DSSTox2DMolFile

> <Tox>
3.955

> <CAS>
127-18-4

$$$$

  CDK

 11 11  0  0  0  0  0  0  0  0999 V2000
    2.7898   -3.8138    0.0000 C   0  0  0  0  0  0  0  0  0  0  0  0
    3.4549   -2.6606    0.0000 C   0  0  0  0  0  0  0  0  0  0  0  0
    2.3017   -1.9954    0.0000 C   0  0  0  0  0  0  0  0  0  0  0  0
    4.6082   -3.3257    0.0000 O   0  0  0  0  0  0  0  0  0  0  0  0
    4.1201   -1.5121    0.0000 C   0  0  0  0  0  0  0  0  0  0  0  0
    1.1532   -2.6606    0.0000 C   0  0  0  0  0  0  0  0  0  0  0  0
    2.3017   -0.6651    0.0000 C   0  0  0  0  0  0  0  0  0  0  0  0
    4.7852   -0.3589    0.0000 C   0  0  0  0  0  0  0  0  0  0  0  0
    0.0000   -1.9954    0.0000 C   0  0  0  0  0  0  0  0  0  0  0  0
    1.1532   -0.0000    0.0000 C   0  0  0  0  0  0  0  0  0  0  0  0
    0.0000   -0.6651    0.0000 C   0  0  0  0  0  0  0  0  0  0  0  0
  1  2  1  0  0  0  0 
  2  3  1  0  0  0  0 
  2  4  1  0  0  0  0 
  2  5  1  0  0  0  0 
  3  6  2  0  0  0  0 
  3  7  1  0  0  0  0 
  5  8  3  0  0  0  0 
  6  9  1  0  0  0  0 
 10  7  2  0  0  0  0 
  9 11  2  0  0  0  0 
 11 10  1  0  0  0  0 
M  END
> <Name>
Benzenemethanol, alpha-ethynyl-alpha-methyl-

> <Source>
DSSTox2DMolFile

> <Tox>
3.112

> <CAS>
127-66-2

$$$$

  CDK

 16 17  0  0  0  0  0  0  0  0999 V2000
    4.9479   -4.0566    0.0000 O   0  0  0  0  0  0  0  0  0  0  0  0
    3.9584   -3.1652    0.0000 C   0  0  0  0  0  0  0  0  0  0  0  0
    4.1019   -1.8432    0.0000 N   0  0  0  0  0  0  0  0  0  0  0  0
    2.6590   -3.4447    0.0000 C   0  0  0  0  0  0  0  0  0  0  0  0
    2.8857   -1.2993    0.0000 C   0  0  0  0  0  0  0  0  0  0  0  0
    5.2501   -1.1784    0.0000 S   0  0  0  0  0  0  0  0  0  0  0  0
    1.9943   -2.2889    0.0000 C   0  0  0  0  0  0  0  0  0  0  0  0
    1.9943   -4.5929    0.0000 C   0  0  0  0  0  0  0  0  0  0  0  0
    2.6062   -0.0000    0.0000 O   0  0  0  0  0  0  0  0  0  0  0  0
    6.4059   -1.8432    0.0000 C   0  0  0  0  0  0  0  0  0  0  0  0
    0.6648   -2.2889    0.0000 C   0  0  0  0  0  0  0  0  0  0  0  0
    0.6648   -4.5929    0.0000 C   0  0  0  0  0  0  0  0  0  0  0  0
    7.0707   -0.6874    0.0000 Cl  0  0  0  0  0  0  0  0  0  0  0  0
    7.5541   -2.5080    0.0000 Cl  0  0  0  0  0  0  0  0  0  0  0  0
    5.7411   -2.9914    0.0000 Cl  0  0  0  0  0  0  0  0  0  0  0  0
    0.0000   -3.4447    0.0000 C   0  0  0  0  0  0  0  0  0  0  0  0
  1  2  2  0  0  0  0 
  2  3  1  0  0  0  0 
  2  4  1  0  0  0  0 
  3  5  1  0  0  0  0 
  3  6  1  0  0  0  0 
  7  4  1  0  0  0  0 
  4  8  1  0  0  0  0 
  5  9  2  0  0  0  0 
  5  7  1  0  0  0  0 
  6 10  1  0  0  0  0 
  7 11  1  0  0  0  0 
  8 12  1  0  0  0  0 
 10 13  1  0  0  0  0 
 10 14  1  0  0  0  0 
 10 15  1  0  0  0  0 
 16 11  1  0  0  0  0 
 12 16  2  0  0  0  0 
M  END
> <Name>
1H-Isoindole-1,3(2H)-dione, 3a,4,7,7a-tetrahydro-2-((trichloromethyl)thio)-

> <Source>
DSSTox2DMolFile

> <Tox>
6.351

> <CAS>
133-06-2

$$$$

  CDK

 16 17  0  0  0  0  0  0  0  0999 V2000
    4.9479   -4.0566    0.0000 O   0  0  0  0  0  0  0  0  0  0  0  0
    3.9584   -3.1652    0.0000 C   0  0  0  0  0  0  0  0  0  0  0  0
    4.1019   -1.8432    0.0000 N   0  0  0  0  0  0  0  0  0  0  0  0
    2.6590   -3.4447    0.0000 C   0  0  0  0  0  0  0  0  0  0  0  0
    2.8857   -1.2993    0.0000 C   0  0  0  0  0  0  0  0  0  0  0  0
    5.2501   -1.1784    0.0000 S   0  0  0  0  0  0  0  0  0  0  0  0
    1.9943   -2.2889    0.0000 C   0  0  0  0  0  0  0  0  0  0  0  0
    1.9943   -4.5929    0.0000 C   0  0  0  0  0  0  0  0  0  0  0  0
    2.6062   -0.0000    0.0000 O   0  0  0  0  0  0  0  0  0  0  0  0
    6.4059   -1.8432    0.0000 C   0  0  0  0  0  0  0  0  0  0  0  0
    0.6648   -2.2889    0.0000 C   0  0  0  0  0  0  0  0  0  0  0  0
    0.6648   -4.5929    0.0000 C   0  0  0  0  0  0  0  0  0  0  0  0
    7.0707   -0.6874    0.0000 Cl  0  0  0  0  0  0  0  0  0  0  0  0
    7.5541   -2.5080    0.0000 Cl  0  0  0  0  0  0  0  0  0  0  0  0
    5.7411   -2.9914    0.0000 Cl  0  0  0  0  0  0  0  0  0  0  0  0
    0.0000   -3.4447    0.0000 C   0  0  0  0  0  0  0  0  0  0  0  0
  1  2  2  0  0  0  0 
  2  3  1  0  0  0  0 
  2  4  1  0  0  0  0 
  3  5  1  0  0  0  0 
  3  6  1  0  0  0  0 
  7  4  2  0  0  0  0 
  4  8  1  0  0  0  0 
  5  9  2  0  0  0  0 
  5  7  1  0  0  0  0 
  6 10  1  0  0  0  0 
  7 11  1  0  0  0  0 
  8 12  2  0  0  0  0 
 10 13  1  0  0  0  0 
 10 14  1  0  0  0  0 
 10 15  1  0  0  0  0 
 16 11  2  0  0  0  0 
 12 16  1  0  0  0  0 
M  END
> <Name>
1H-Isoindole-1,3(2H)-dione, 2-((trichloromethyl)thio)-

> <Source>
DSSTox2DMolFile

> <Tox>
6.207

> <CAS>
133-07-3

$$$$

  CDK

 17 18  0  0  0  0  0  0  0  0999 V2000
    7.9821   -0.0000    0.0000 C   0  0  0  0  0  0  0  0  0  0  0  0
    9.3092   -0.0000    0.0000 C   0  0  0  0  0  0  0  0  0  0  0  0
    7.3136   -1.1574    0.0000 C   0  0  0  0  0  0  0  0  0  0  0  0
    9.9777   -1.1574    0.0000 C   0  0  0  0  0  0  0  0  0  0  0  0
    7.9821   -2.3048    0.0000 C   0  0  0  0  0  0  0  0  0  0  0  0
    5.9866   -1.1574    0.0000 O   0  0  0  0  0  0  0  0  0  0  0  0
    9.3092   -2.3048    0.0000 C   0  0  0  0  0  0  0  0  0  0  0  0
    5.3181   -2.3048    0.0000 C   0  0  0  0  0  0  0  0  0  0  0  0
    5.9866   -3.4623    0.0000 O   0  0  0  0  0  0  0  0  0  0  0  0
    3.9911   -2.3048    0.0000 C   0  0  0  0  0  0  0  0  0  0  0  0
    3.3226   -3.4623    0.0000 C   0  0  0  0  0  0  0  0  0  0  0  0
    3.3226   -1.1574    0.0000 C   0  0  0  0  0  0  0  0  0  0  0  0
    3.9911   -4.6097    0.0000 O   0  0  0  0  0  0  0  0  0  0  0  0
    1.9955   -3.4623    0.0000 C   0  0  0  0  0  0  0  0  0  0  0  0
    1.9955   -1.1574    0.0000 C   0  0  0  0  0  0  0  0  0  0  0  0
    1.3270   -2.3048    0.0000 C   0  0  0  0  0  0  0  0  0  0  0  0
    0.0000   -2.3048    0.0000 N   0  0  0  0  0  0  0  0  0  0  0  0
  1  2  2  0  0  0  0 
  1  3  1  0  0  0  0 
  2  4  1  0  0  0  0 
  5  3  2  0  0  0  0 
  3  6  1  0  0  0  0 
  4  7  2  0  0  0  0 
  7  5  1  0  0  0  0 
  6  8  1  0  0  0  0 
  8  9  2  0  0  0  0 
  8 10  1  0  0  0  0 
 10 11  2  0  0  0  0 
 10 12  1  0  0  0  0 
 11 13  1  0  0  0  0 
 11 14  1  0  0  0  0 
 15 12  2  0  0  0  0 
 14 16  2  0  0  0  0 
 16 15  1  0  0  0  0 
 16 17  1  0  0  0  0 
M  END
> <Name>
Salicylic acid, 4-amino-, phenyl ester (8CI)

> <Source>
DSSTox2DMolFile

> <Tox>
4.682

> <CAS>
133-11-9

$$$$

  CDK

 14 14  0  0  0  0  0  0  0  0999 V2000
    6.6497   -2.3074    0.0000 C   0  0  0  0  0  0  0  0  0  0  0  0
    5.9847   -1.1570    0.0000 C   0  0  0  0  0  0  0  0  0  0  0  0
    4.6548   -1.1570    0.0000 N   0  0  0  0  0  0  0  0  0  0  0  0
    3.9898   -0.0000    0.0000 C   0  0  0  0  0  0  0  0  0  0  0  0
    3.9898   -2.3074    0.0000 C   0  0  0  0  0  0  0  0  0  0  0  0
    2.6599   -0.0000    0.0000 C   0  0  0  0  0  0  0  0  0  0  0  0
    4.6548   -3.4578    0.0000 O   0  0  0  0  0  0  0  0  0  0  0  0
    2.6599   -2.3074    0.0000 C   0  0  0  0  0  0  0  0  0  0  0  0
    1.9949   -3.4578    0.0000 C   0  0  0  0  0  0  0  0  0  0  0  0
    1.9949   -1.1570    0.0000 C   0  0  0  0  0  0  0  0  0  0  0  0
    0.6650   -3.4578    0.0000 C   0  0  0  0  0  0  0  0  0  0  0  0
    0.6650   -1.1570    0.0000 C   0  0  0  0  0  0  0  0  0  0  0  0
    0.0000   -2.3074    0.0000 C   0  0  0  0  0  0  0  0  0  0  0  0
    0.0000   -0.0000    0.0000 C   0  0  0  0  0  0  0  0  0  0  0  0
  1  2  1  0  0  0  0 
  2  3  1  0  0  0  0 
  3  4  1  0  0  0  0 
  3  5  1  0  0  0  0 
  4  6  1  0  0  0  0 
  5  7  2  0  0  0  0 
  5  8  1  0  0  0  0 
  8  9  2  0  0  0  0 
  8 10  1  0  0  0  0 
  9 11  1  0  0  0  0 
 12 10  2  0  0  0  0 
 11 13  2  0  0  0  0 
 13 12  1  0  0  0  0 
 12 14  1  0  0  0  0 
M  END
> <Name>
Benzamide, N,N-diethyl-3-methyl-

> <Source>
DSSTox2DMolFile

> <Tox>
3.240

> <CAS>
134-62-3

$$$$

  CDK

 11 12  0  0  0  0  0  0  0  0999 V2000
    2.3040   -0.6566    0.0000 C   0  0  0  0  0  0  0  0  0  0  0  0
    2.3040   -1.9987    0.0000 C   0  0  0  0  0  0  0  0  0  0  0  0
    1.1520   -0.0000    0.0000 C   0  0  0  0  0  0  0  0  0  0  0  0
    3.4559   -0.0000    0.0000 C   0  0  0  0  0  0  0  0  0  0  0  0
    1.1520   -2.6553    0.0000 C   0  0  0  0  0  0  0  0  0  0  0  0
    3.4559   -2.6553    0.0000 C   0  0  0  0  0  0  0  0  0  0  0  0
    0.0000   -0.6566    0.0000 C   0  0  0  0  0  0  0  0  0  0  0  0
    4.6079   -0.6566    0.0000 C   0  0  0  0  0  0  0  0  0  0  0  0
    0.0000   -1.9987    0.0000 C   0  0  0  0  0  0  0  0  0  0  0  0
    4.6079   -1.9987    0.0000 C   0  0  0  0  0  0  0  0  0  0  0  0
    5.7599   -0.0000    0.0000 O   0  0  0  0  0  0  0  0  0  0  0  0
  1  2  2  0  0  0  0 
  1  3  1  0  0  0  0 
  1  4  1  0  0  0  0 
  2  5  1  0  0  0  0 
  2  6  1  0  0  0  0 
  3  7  2  0  0  0  0 
  4  8  2  0  0  0  0 
  5  9  2  0  0  0  0 
  6 10  2  0  0  0  0 
  9  7  1  0  0  0  0 
  8 10  1  0  0  0  0 
  8 11  1  0  0  0  0 
M  END
> <Name>
2-Naphthalenol

> <Source>
DSSTox2DMolFile

> <Tox>
4.620

> <CAS>
135-19-3

$$$$

  CDK

 10 10  0  0  0  0  0  0  0  0999 V2000
    1.1532   -1.3325    0.0000 C   0  0  0  0  0  0  0  0  0  0  0  0
    2.3064   -1.9837    0.0000 C   0  0  0  0  0  0  0  0  0  0  0  0
    0.0000   -1.9837    0.0000 C   0  0  0  0  0  0  0  0  0  0  0  0
    1.1532   -0.0000    0.0000 C   0  0  0  0  0  0  0  0  0  0  0  0
    2.3064   -3.3162    0.0000 C   0  0  0  0  0  0  0  0  0  0  0  0
    0.0000   -3.3162    0.0000 C   0  0  0  0  0  0  0  0  0  0  0  0
    1.1532   -3.9914    0.0000 C   0  0  0  0  0  0  0  0  0  0  0  0
    1.1532   -5.3179    0.0000 C   0  0  0  0  0  0  0  0  0  0  0  0
    2.3064   -5.9751    0.0000 C   0  0  0  0  0  0  0  0  0  0  0  0
    0.0000   -5.9751    0.0000 C   0  0  0  0  0  0  0  0  0  0  0  0
  1  2  2  0  0  0  0 
  1  3  1  0  0  0  0 
  1  4  1  0  0  0  0 
  2  5  1  0  0  0  0 
  6  3  1  0  0  0  0 
  5  7  1  0  0  0  0 
  7  6  1  0  0  0  0 
  7  8  1  0  0  0  0 
  8  9  2  0  0  0  0 
  8 10  1  0  0  0  0 
M  END
> <Name>
Cyclohexene, 1-methyl-4-(1-methylethenyl)-

> <Source>
DSSTox2DMolFile

> <Tox>
2.149

> <CAS>
138-86-3

$$$$

  CDK

  9  9  0  0  0  0  0  0  0  0999 V2000
    0.0000   -0.0000    0.0000 N   0  0  0  0  0  0  0  0  0  0  0  0
    1.3283   -0.0000    0.0000 C   0  0  0  0  0  0  0  0  0  0  0  0
    1.9925   -1.1548    0.0000 C   0  0  0  0  0  0  0  0  0  0  0  0
    3.3269   -1.1548    0.0000 N   0  0  0  0  0  0  0  0  0  0  0  0
    3.9910   -0.0000    0.0000 C   0  0  0  0  0  0  0  0  0  0  0  0
    3.9910   -2.3037    0.0000 C   0  0  0  0  0  0  0  0  0  0  0  0
    5.3194   -0.0000    0.0000 C   0  0  0  0  0  0  0  0  0  0  0  0
    5.3194   -2.3037    0.0000 C   0  0  0  0  0  0  0  0  0  0  0  0
    5.9836   -1.1548    0.0000 N   0  0  0  0  0  0  0  0  0  0  0  0
  1  2  1  0  0  0  0 
  2  3  1  0  0  0  0 
  3  4  1  0  0  0  0 
  4  5  1  0  0  0  0 
  4  6  1  0  0  0  0 
  5  7  1  0  0  0  0 
  8  6  1  0  0  0  0 
  7  9  1  0  0  0  0 
  9  8  1  0  0  0  0 
M  END
> <Name>
Piperazine, 1-(2-aminoethyl)-

> <Source>
DSSTox2DMolFile

> <Tox>
1.771

> <CAS>
140-31-8

$$$$

  CDK

  7  6  0  0  0  0  0  0  0  0999 V2000
    2.6592   -0.0000    0.0000 O   0  0  0  0  0  0  0  0  0  0  0  0
    1.9979   -1.1550    0.0000 C   0  0  0  0  0  0  0  0  0  0  0  0
    2.6592   -2.3053    0.0000 O   0  0  0  0  0  0  0  0  0  0  0  0
    0.6660   -1.1550    0.0000 C   0  0  0  0  0  0  0  0  0  0  0  0
    3.9912   -2.3053    0.0000 C   0  0  0  0  0  0  0  0  0  0  0  0
    0.0000   -2.3053    0.0000 C   0  0  0  0  0  0  0  0  0  0  0  0
    4.6571   -1.1550    0.0000 C   0  0  0  0  0  0  0  0  0  0  0  0
  1  2  2  0  0  0  0 
  2  3  1  0  0  0  0 
  2  4  1  0  0  0  0 
  3  5  1  0  0  0  0 
  4  6  2  0  0  0  0 
  5  7  1  0  0  0  0 
M  END
> <Name>
2-Propenoic acid, ethyl ester

> <Source>
DSSTox2DMolFile

> <Tox>
4.603

> <CAS>
140-88-5

$$$$

  CDK

 16 15  0  0  0  0  0  0  0  0999 V2000
   12.6865   -3.3366    0.0000 C   0  0  0  0  0  0  0  0  0  0  0  0
   11.5320   -3.9963    0.0000 C   0  0  0  0  0  0  0  0  0  0  0  0
   10.3776   -3.3366    0.0000 C   0  0  0  0  0  0  0  0  0  0  0  0
    9.2231   -3.9963    0.0000 C   0  0  0  0  0  0  0  0  0  0  0  0
    8.0686   -3.3366    0.0000 O   0  0  0  0  0  0  0  0  0  0  0  0
    6.9142   -3.9963    0.0000 C   0  0  0  0  0  0  0  0  0  0  0  0
    6.9142   -5.3283    0.0000 O   0  0  0  0  0  0  0  0  0  0  0  0
    5.7724   -3.3366    0.0000 C   0  0  0  0  0  0  0  0  0  0  0  0
    4.6179   -3.9963    0.0000 C   0  0  0  0  0  0  0  0  0  0  0  0
    3.4634   -3.3366    0.0000 C   0  0  0  0  0  0  0  0  0  0  0  0
    3.4634   -2.0045    0.0000 O   0  0  0  0  0  0  0  0  0  0  0  0
    2.3089   -3.9963    0.0000 O   0  0  0  0  0  0  0  0  0  0  0  0
    1.1545   -3.3366    0.0000 C   0  0  0  0  0  0  0  0  0  0  0  0
    1.1545   -2.0045    0.0000 C   0  0  0  0  0  0  0  0  0  0  0  0
    0.0000   -1.3321    0.0000 C   0  0  0  0  0  0  0  0  0  0  0  0
    0.0000   -0.0000    0.0000 C   0  0  0  0  0  0  0  0  0  0  0  0
  1  2  1  0  0  0  0 
  2  3  1  0  0  0  0 
  3  4  1  0  0  0  0 
  4  5  1  0  0  0  0 
  5  6  1  0  0  0  0 
  6  7  2  0  0  0  0 
  6  8  1  0  0  0  0 
  8  9  1  0  0  0  0 
  9 10  1  0  0  0  0 
 10 11  2  0  0  0  0 
 10 12  1  0  0  0  0 
 12 13  1  0  0  0  0 
 13 14  1  0  0  0  0 
 14 15  1  0  0  0  0 
 15 16  1  0  0  0  0 
M  END
> <Name>
Butanedioic acid, dibutyl ester

> <Source>
DSSTox2DMolFile

> <Tox>
4.713

> <CAS>
141-03-7

$$$$

  CDK

 12 11  0  0  0  0  0  0  0  0999 V2000
    1.1545   -5.3201    0.0000 O   0  0  0  0  0  0  0  0  0  0  0  0
    1.1545   -3.9901    0.0000 C   0  0  0  0  0  0  0  0  0  0  0  0
    0.0000   -3.3251    0.0000 C   0  0  0  0  0  0  0  0  0  0  0  0
    2.3036   -3.3251    0.0000 O   0  0  0  0  0  0  0  0  0  0  0  0
    0.0000   -1.9950    0.0000 C   0  0  0  0  0  0  0  0  0  0  0  0
    3.4581   -3.9901    0.0000 C   0  0  0  0  0  0  0  0  0  0  0  0
    1.1491   -1.3300    0.0000 C   0  0  0  0  0  0  0  0  0  0  0  0
    4.6072   -3.3251    0.0000 C   0  0  0  0  0  0  0  0  0  0  0  0
    1.1491   -0.0000    0.0000 O   0  0  0  0  0  0  0  0  0  0  0  0
    2.3036   -1.9950    0.0000 O   0  0  0  0  0  0  0  0  0  0  0  0
    3.4527   -1.3300    0.0000 C   0  0  0  0  0  0  0  0  0  0  0  0
    4.6072   -1.9950    0.0000 C   0  0  0  0  0  0  0  0  0  0  0  0
  1  2  2  0  0  0  0 
  2  3  1  0  0  0  0 
  2  4  1  0  0  0  0 
  3  5  2  0  0  0  0 
  4  6  1  0  0  0  0 
  5  7  1  0  0  0  0 
  6  8  1  0  0  0  0 
  7  9  2  0  0  0  0 
  7 10  1  0  0  0  0 
 10 11  1  0  0  0  0 
 11 12  1  0  0  0  0 
M  END
> <Name>
2-Butenedioic acid (Z)-, diethyl ester (9CI)

> <Source>
DSSTox2DMolFile

> <Tox>
3.981

> <CAS>
141-05-9

$$$$

  CDK

 14 13  0  0  0  0  0  0  0  0999 V2000
   10.3655   -2.0005    0.0000 C   0  0  0  0  0  0  0  0  0  0  0  0
   10.3655   -0.6738    0.0000 C   0  0  0  0  0  0  0  0  0  0  0  0
    9.2149   -0.0000    0.0000 O   0  0  0  0  0  0  0  0  0  0  0  0
    8.0643   -0.6738    0.0000 C   0  0  0  0  0  0  0  0  0  0  0  0
    8.0643   -2.0005    0.0000 O   0  0  0  0  0  0  0  0  0  0  0  0
    6.9138   -0.0000    0.0000 C   0  0  0  0  0  0  0  0  0  0  0  0
    5.7632   -0.6738    0.0000 C   0  0  0  0  0  0  0  0  0  0  0  0
    5.7632   -2.0005    0.0000 C   0  0  0  0  0  0  0  0  0  0  0  0
    4.6023   -2.6639    0.0000 C   0  0  0  0  0  0  0  0  0  0  0  0
    3.4517   -2.0005    0.0000 C   0  0  0  0  0  0  0  0  0  0  0  0
    3.4517   -0.6738    0.0000 O   0  0  0  0  0  0  0  0  0  0  0  0
    2.3011   -2.6639    0.0000 O   0  0  0  0  0  0  0  0  0  0  0  0
    1.1506   -2.0005    0.0000 C   0  0  0  0  0  0  0  0  0  0  0  0
    0.0000   -2.6639    0.0000 C   0  0  0  0  0  0  0  0  0  0  0  0
  1  2  1  0  0  0  0 
  2  3  1  0  0  0  0 
  3  4  1  0  0  0  0 
  4  5  2  0  0  0  0 
  4  6  1  0  0  0  0 
  6  7  1  0  0  0  0 
  7  8  1  0  0  0  0 
  8  9  1  0  0  0  0 
  9 10  1  0  0  0  0 
 10 11  2  0  0  0  0 
 10 12  1  0  0  0  0 
 12 13  1  0  0  0  0 
 13 14  1  0  0  0  0 
M  END
> <Name>
Hexanedioic acid, diethyl ester

> <Source>
DSSTox2DMolFile

> <Tox>
4.050

> <CAS>
141-28-6

$$$$

  CDK

  8  8  0  0  0  0  0  0  0  0999 V2000
    2.3040   -0.0000    0.0000 N   0  0  0  0  0  0  0  0  0  0  0  0
    3.4560   -0.6635    0.0000 C   0  0  0  0  0  0  0  0  0  0  0  0
    1.1520   -0.6635    0.0000 C   0  0  0  0  0  0  0  0  0  0  0  0
    3.4560   -1.9953    0.0000 C   0  0  0  0  0  0  0  0  0  0  0  0
    1.1520   -1.9953    0.0000 C   0  0  0  0  0  0  0  0  0  0  0  0
    4.6080   -2.6588    0.0000 C   0  0  0  0  0  0  0  0  0  0  0  0
    2.3040   -2.6588    0.0000 O   0  0  0  0  0  0  0  0  0  0  0  0
    0.0000   -2.6588    0.0000 C   0  0  0  0  0  0  0  0  0  0  0  0
  1  2  1  0  0  0  0 
  1  3  1  0  0  0  0 
  2  4  1  0  0  0  0 
  5  3  1  0  0  0  0 
  4  6  1  0  0  0  0 
  4  7  1  0  0  0  0 
  7  5  1  0  0  0  0 
  5  8  1  0  0  0  0 
M  END
> <Name>
Morpholine, 2,6-dimethyl-

> <Source>
DSSTox2DMolFile

> <Tox>
2.474

> <CAS>
141-91-3

$$$$

  CDK

  8  7  0  0  0  0  0  0  0  0999 V2000
    0.0000   -1.9974    0.0000 C   0  0  0  0  0  0  0  0  0  0  0  0
    1.1542   -1.3339    0.0000 C   0  0  0  0  0  0  0  0  0  0  0  0
    2.3015   -1.9974    0.0000 C   0  0  0  0  0  0  0  0  0  0  0  0
    3.4558   -1.3339    0.0000 C   0  0  0  0  0  0  0  0  0  0  0  0
    4.6100   -1.9974    0.0000 C   0  0  0  0  0  0  0  0  0  0  0  0
    5.7573   -1.3339    0.0000 C   0  0  0  0  0  0  0  0  0  0  0  0
    6.9115   -1.9974    0.0000 O   0  0  0  0  0  0  0  0  0  0  0  0
    5.7573   -0.0000    0.0000 O   0  0  0  0  0  0  0  0  0  0  0  0
  1  2  1  0  0  0  0 
  2  3  1  0  0  0  0 
  3  4  1  0  0  0  0 
  4  5  1  0  0  0  0 
  5  6  1  0  0  0  0 
  6  7  1  0  0  0  0 
  6  8  2  0  0  0  0 
M  END
> <Name>
Hexanoic acid

> <Source>
DSSTox2DMolFile

> <Tox>
2.840

> <CAS>
142-62-1

$$$$

  CDK

  9  8  0  0  0  0  0  0  0  0999 V2000
    0.0000   -0.6638    0.0000 C   0  0  0  0  0  0  0  0  0  0  0  0
    1.1525   -0.0000    0.0000 C   0  0  0  0  0  0  0  0  0  0  0  0
    2.3050   -0.6638    0.0000 C   0  0  0  0  0  0  0  0  0  0  0  0
    3.4575   -0.0000    0.0000 C   0  0  0  0  0  0  0  0  0  0  0  0
    4.6099   -0.6638    0.0000 O   0  0  0  0  0  0  0  0  0  0  0  0
    5.7624   -0.0000    0.0000 C   0  0  0  0  0  0  0  0  0  0  0  0
    6.9149   -0.6638    0.0000 C   0  0  0  0  0  0  0  0  0  0  0  0
    8.0674   -0.0000    0.0000 C   0  0  0  0  0  0  0  0  0  0  0  0
    9.2199   -0.6638    0.0000 C   0  0  0  0  0  0  0  0  0  0  0  0
  1  2  1  0  0  0  0 
  2  3  1  0  0  0  0 
  3  4  1  0  0  0  0 
  4  5  1  0  0  0  0 
  5  6  1  0  0  0  0 
  6  7  1  0  0  0  0 
  7  8  1  0  0  0  0 
  8  9  1  0  0  0  0 
M  END
> <Name>
Butane, 1,1'-oxybis-

> <Source>
DSSTox2DMolFile

> <Tox>
3.606

> <CAS>
142-96-1

$$$$

  CDK

 21 25  0  0  0  0  0  0  0  0999 V2000
    3.0763   -2.1906    0.0000 C   0  0  0  0  0  0  0  0  0  0  0  0
    2.0351   -1.4536    0.0000 C   0  0  0  0  0  0  0  0  0  0  0  0
    4.7125   -2.1906    0.0000 C   0  0  0  0  0  0  0  0  0  0  0  0
    3.0763   -3.8741    0.0000 C   0  0  0  0  0  0  0  0  0  0  0  0
    2.4002   -2.4813    0.0000 Cl  0  0  0  0  0  0  0  0  0  0  0  0
    3.6781   -1.4536    0.0000 C   0  0  0  0  0  0  0  0  0  0  0  0
    2.0351   -3.1304    0.0000 C   0  0  0  0  0  0  0  0  0  0  0  0
    1.4942   -0.8181    0.0000 Cl  0  0  0  0  0  0  0  0  0  0  0  0
    4.7125   -3.8741    0.0000 C   0  0  0  0  0  0  0  0  0  0  0  0
    5.8416   -1.1359    0.0000 C   0  0  0  0  0  0  0  0  0  0  0  0
    5.5577   -2.5016    0.0000 Cl  0  0  0  0  0  0  0  0  0  0  0  0
    1.0818   -4.0837    0.0000 C   0  0  0  0  0  0  0  0  0  0  0  0
    3.4008   -4.7531    0.0000 Cl  0  0  0  0  0  0  0  0  0  0  0  0
    3.6781   -3.1304    0.0000 C   0  0  0  0  0  0  0  0  0  0  0  0
    4.1446   -0.7032    0.0000 Cl  0  0  0  0  0  0  0  0  0  0  0  0
    1.2440   -2.8600    0.0000 Cl  0  0  0  0  0  0  0  0  0  0  0  0
    5.0844   -4.6652    0.0000 Cl  0  0  0  0  0  0  0  0  0  0  0  0
    6.2270   -0.0000    0.0000 Cl  0  0  0  0  0  0  0  0  0  0  0  0
    6.7611   -1.8187    0.0000 Cl  0  0  0  0  0  0  0  0  0  0  0  0
    0.0000   -4.7531    0.0000 O   0  0  0  0  0  0  0  0  0  0  0  0
    4.3068   -2.7856    0.0000 Cl  0  0  0  0  0  0  0  0  0  0  0  0
  1  2  1  0  0  0  0 
  1  3  1  0  0  0  0 
  1  4  1  0  0  0  0 
  1  5  1  0  0  0  0 
  2  6  1  0  0  0  0 
  2  7  1  0  0  0  0 
  2  8  1  0  0  0  0 
  9  3  1  0  0  0  0 
  3 10  1  0  0  0  0 
  3 11  1  0  0  0  0 
  9  4  1  0  0  0  0 
  4 12  1  0  0  0  0 
  4 13  1  0  0  0  0 
 14  6  1  0  0  0  0 
  6 15  1  0  0  0  0 
  6 10  1  0  0  0  0 
 14  7  1  0  0  0  0 
  7 16  1  0  0  0  0 
  7 12  1  0  0  0  0 
  9 14  1  0  0  0  0 
  9 17  1  0  0  0  0 
 10 18  1  0  0  0  0 
 10 19  1  0  0  0  0 
 12 20  2  0  0  0  0 
 14 21  1  0  0  0  0 
M  END
> <Name>
1,3,4-Metheno-2H-cyclobuta(cd)pentalen-2-one, 1,1a,3,3a,4,5,5,5a,5b,6-decachlorooctahydro-

> <Source>
DSSTox2DMolFile

> <Tox>
6.113

> <CAS>
143-50-0

$$$$

  CDK

 13 14  0  0  0  0  0  0  0  0999 V2000
    2.2994   -1.9967    0.0000 C   0  0  0  0  0  0  0  0  0  0  0  0
    2.2994   -3.3137    0.0000 C   0  0  0  0  0  0  0  0  0  0  0  0
    1.1524   -1.3276    0.0000 C   0  0  0  0  0  0  0  0  0  0  0  0
    3.4412   -1.3276    0.0000 C   0  0  0  0  0  0  0  0  0  0  0  0
    1.1524   -3.9828    0.0000 C   0  0  0  0  0  0  0  0  0  0  0  0
    3.4412   -3.9828    0.0000 C   0  0  0  0  0  0  0  0  0  0  0  0
    0.9718   -2.6658    0.0000 O   0  0  0  0  0  0  0  0  0  0  0  0
    0.0000   -1.9967    0.0000 C   0  0  0  0  0  0  0  0  0  0  0  0
    3.4412   -0.0000    0.0000 O   0  0  0  0  0  0  0  0  0  0  0  0
    4.6041   -1.9967    0.0000 O   0  0  0  0  0  0  0  0  0  0  0  0
    0.0000   -3.3137    0.0000 C   0  0  0  0  0  0  0  0  0  0  0  0
    4.6041   -3.3137    0.0000 O   0  0  0  0  0  0  0  0  0  0  0  0
    3.4412   -5.3104    0.0000 O   0  0  0  0  0  0  0  0  0  0  0  0
  1  2  1  0  0  0  0 
  1  3  1  0  0  0  0 
  1  4  1  0  0  0  0 
  2  5  1  0  0  0  0 
  2  6  1  0  0  0  0 
  3  7  1  0  0  0  0 
  3  8  1  0  0  0  0 
  4  9  2  0  0  0  0 
  4 10  1  0  0  0  0 
  5  7  1  0  0  0  0 
  5 11  1  0  0  0  0 
  6 12  2  0  0  0  0 
  6 13  1  0  0  0  0 
 11  8  1  0  0  0  0 
M  END
> <Name>
7-Oxabicyclo(2.2.1)heptane-2,3-dicarboxylic acid

> <Source>
DSSTox2DMolFile

> <Tox>
4.080

> <CAS>
145-73-3

$$$$

  CDK

 10 11  0  0  0  0  0  0  0  0999 V2000
    0.0000    0.0000    0.0000 N   0  0  0  0  0  0  0  0  0  0  0  0
   -0.6800    1.2400   -0.1200 C   0  0  0  0  0  0  0  0  0  0  0  0
    1.4400    0.2200   -0.1600 C   0  0  0  0  0  0  0  0  0  0  0  0
   -2.3400    1.4000   -0.0200 S   0  0  0  0  0  0  0  0  0  0  0  0
    0.3400    2.6000   -0.4000 S   0  0  0  0  0  0  0  0  0  0  0  0
    2.4400   -0.7600   -0.1200 C   0  0  0  0  0  0  0  0  0  0  0  0
    1.6600    1.5800   -0.3600 C   0  0  0  0  0  0  0  0  0  0  0  0
    3.7600   -0.3000   -0.2800 C   0  0  0  0  0  0  0  0  0  0  0  0
    2.9800    2.0400   -0.5400 C   0  0  0  0  0  0  0  0  0  0  0  0
    4.0200    1.0800   -0.5000 C   0  0  0  0  0  0  0  0  0  0  0  0
  1  2  1  0  0  0  0 
  1  3  1  0  0  0  0 
  2  4  2  0  0  0  0 
  2  5  1  0  0  0  0 
  3  6  2  0  0  0  0 
  3  7  1  0  0  0  0 
  7  5  1  0  0  0  0 
  6  8  1  0  0  0  0 
  9  7  2  0  0  0  0 
  8 10  2  0  0  0  0 
 10  9  1  0  0  0  0 
M  END
> <Name>
2(3H)-Benzothiazolethione

> <Source>
NIH3DMolFile

> <Tox>
4.182

> <CAS>
149-30-4

$$$$

  CDK

  8  7  0  0  0  0  0  0  0  0999 V2000
    2.0026    0.2376   -0.3290 C   0  0  0  0  0  0  0  0  0  0  0  0
    0.6703    0.6938    0.2888 C   0  0  0  0  0  0  0  0  0  0  0  0
    2.3003   -1.0501    0.1721 O   0  0  0  0  0  0  0  0  0  0  0  0
   -0.5160   -0.1688   -0.2189 C   0  0  0  0  0  0  0  0  0  0  0  0
    0.4587    2.1579   -0.0581 C   0  0  0  0  0  0  0  0  0  0  0  0
   -1.8290    0.2533    0.4645 C   0  0  0  0  0  0  0  0  0  0  0  0
   -0.3442   -1.5519    0.0243 O   0  0  0  0  0  0  0  0  0  0  0  0
   -3.0448   -0.2410   -0.2846 C   0  0  0  0  0  0  0  0  0  0  0  0
  1  2  1  0  0  0  0 
  1  3  1  0  0  0  0 
  2  4  1  0  0  0  0 
  2  5  1  0  0  0  0 
  4  6  1  0  0  0  0 
  4  7  1  0  0  0  0 
  6  8  1  0  0  0  0 
M  END
> <Name>
1,3-Pentanediol, 2-methyl-

> <Source>
DougDB3DMolFile

> <Tox>
1.134

> <CAS>
149-31-5

$$$$

  CDK

  9  9  0  0  0  0  0  0  0  0999 V2000
    5.7605   -2.6614    0.0000 O   0  0  0  0  0  0  0  0  0  0  0  0
    4.6084   -1.9989    0.0000 C   0  0  0  0  0  0  0  0  0  0  0  0
    3.4563   -2.6614    0.0000 C   0  0  0  0  0  0  0  0  0  0  0  0
    4.6084   -0.6682    0.0000 C   0  0  0  0  0  0  0  0  0  0  0  0
    2.3042   -1.9989    0.0000 C   0  0  0  0  0  0  0  0  0  0  0  0
    3.4563   -0.0000    0.0000 C   0  0  0  0  0  0  0  0  0  0  0  0
    1.1521   -2.6614    0.0000 O   0  0  0  0  0  0  0  0  0  0  0  0
    2.3042   -0.6682    0.0000 C   0  0  0  0  0  0  0  0  0  0  0  0
    0.0000   -1.9989    0.0000 C   0  0  0  0  0  0  0  0  0  0  0  0
  1  2  1  0  0  0  0 
  2  3  2  0  0  0  0 
  2  4  1  0  0  0  0 
  3  5  1  0  0  0  0 
  6  4  2  0  0  0  0 
  5  7  1  0  0  0  0 
  5  8  2  0  0  0  0 
  8  6  1  0  0  0  0 
  7  9  1  0  0  0  0 
M  END
> <Name>
Phenol, 3-methoxy-

> <Source>
DSSTox2DMolFile

> <Tox>
3.222

> <CAS>
150-19-6

$$$$

  CDK

  9  9  0  0  0  0  0  0  0  0999 V2000
    0.0000   -0.0000    0.0000 C   0  0  0  0  0  0  0  0  0  0  0  0
    0.6638   -1.1542    0.0000 O   0  0  0  0  0  0  0  0  0  0  0  0
    1.9915   -1.1542    0.0000 C   0  0  0  0  0  0  0  0  0  0  0  0
    2.6554   -0.0000    0.0000 C   0  0  0  0  0  0  0  0  0  0  0  0
    2.6554   -2.3025    0.0000 C   0  0  0  0  0  0  0  0  0  0  0  0
    3.9890   -0.0000    0.0000 C   0  0  0  0  0  0  0  0  0  0  0  0
    3.9890   -2.3025    0.0000 C   0  0  0  0  0  0  0  0  0  0  0  0
    4.6529   -1.1542    0.0000 C   0  0  0  0  0  0  0  0  0  0  0  0
    5.9806   -1.1542    0.0000 O   0  0  0  0  0  0  0  0  0  0  0  0
  1  2  1  0  0  0  0 
  2  3  1  0  0  0  0 
  3  4  2  0  0  0  0 
  3  5  1  0  0  0  0 
  4  6  1  0  0  0  0 
  7  5  2  0  0  0  0 
  6  8  2  0  0  0  0 
  8  7  1  0  0  0  0 
  8  9  1  0  0  0  0 
M  END
> <Name>
Phenol, 4-methoxy-

> <Source>
DSSTox2DMolFile

> <Tox>
3.110

> <CAS>
150-76-5

$$$$

  CDK

 10 10  0  0  0  0  0  0  0  0999 V2000
    0.0000   -0.0000    0.0000 C   0  0  0  0  0  0  0  0  0  0  0  0
    0.6654   -1.1511    0.0000 O   0  0  0  0  0  0  0  0  0  0  0  0
    1.9961   -1.1511    0.0000 C   0  0  0  0  0  0  0  0  0  0  0  0
    2.6614   -0.0000    0.0000 C   0  0  0  0  0  0  0  0  0  0  0  0
    2.6614   -2.3021    0.0000 C   0  0  0  0  0  0  0  0  0  0  0  0
    3.9921   -0.0000    0.0000 C   0  0  0  0  0  0  0  0  0  0  0  0
    3.9921   -2.3021    0.0000 C   0  0  0  0  0  0  0  0  0  0  0  0
    4.6575   -1.1511    0.0000 C   0  0  0  0  0  0  0  0  0  0  0  0
    5.9882   -1.1511    0.0000 O   0  0  0  0  0  0  0  0  0  0  0  0
    6.6535   -2.3021    0.0000 C   0  0  0  0  0  0  0  0  0  0  0  0
  1  2  1  0  0  0  0 
  2  3  1  0  0  0  0 
  3  4  2  0  0  0  0 
  3  5  1  0  0  0  0 
  4  6  1  0  0  0  0 
  7  5  2  0  0  0  0 
  6  8  2  0  0  0  0 
  8  7  1  0  0  0  0 
  8  9  1  0  0  0  0 
  9 10  1  0  0  0  0 
M  END
> <Name>
Hydroquinone dimethyl ether

> <Source>
DSSTox2DMolFile

> <Tox>
3.072

> <CAS>
150-78-7

$$$$

  CDK

 17 16  0  0  0  0  0  0  0  0999 V2000
   -1.6440   -0.2254    0.4748 P   0  0  0  0  0  0  0  0  0  0  0  0
   -1.9444   -0.8917    1.7408 O   0  0  0  0  0  0  0  0  0  0  0  0
   -2.3589    1.3768    0.2507 N   0  0  0  0  0  0  0  0  0  0  0  0
   -2.1621   -1.1062   -0.9834 N   0  0  0  0  0  0  0  0  0  0  0  0
   -0.0004    0.0008    0.2190 O   0  0  0  0  0  0  0  0  0  0  0  0
   -2.8901    2.0435    1.4540 C   0  0  0  0  0  0  0  0  0  0  0  0
   -1.8884    2.3334   -0.7669 C   0  0  0  0  0  0  0  0  0  0  0  0
   -1.2991   -1.2420   -2.1685 C   0  0  0  0  0  0  0  0  0  0  0  0
   -2.9763   -2.3118   -0.7385 C   0  0  0  0  0  0  0  0  0  0  0  0
    1.6432    0.2256    0.4750 P   0  0  0  0  0  0  0  0  0  0  0  0
    1.9446    0.8917    1.7408 O   0  0  0  0  0  0  0  0  0  0  0  0
    2.1625    1.1058   -0.9831 N   0  0  0  0  0  0  0  0  0  0  0  0
    2.3570   -1.3771    0.2508 N   0  0  0  0  0  0  0  0  0  0  0  0
    1.2987    1.2458   -2.1672 C   0  0  0  0  0  0  0  0  0  0  0  0
    2.9817    2.3079   -0.7378 C   0  0  0  0  0  0  0  0  0  0  0  0
    1.8865   -2.3335   -0.7670 C   0  0  0  0  0  0  0  0  0  0  0  0
    2.8898   -2.0437    1.4533 C   0  0  0  0  0  0  0  0  0  0  0  0
  1  2  2  0  0  0  0 
  1  3  1  0  0  0  0 
  1  4  1  0  0  0  0 
  1  5  1  0  0  0  0 
  3  6  1  0  0  0  0 
  3  7  1  0  0  0  0 
  4  8  1  0  0  0  0 
  4  9  1  0  0  0  0 
  5 10  1  0  0  0  0 
 10 11  2  0  0  0  0 
 10 12  1  0  0  0  0 
 10 13  1  0  0  0  0 
 12 14  1  0  0  0  0 
 12 15  1  0  0  0  0 
 13 16  1  0  0  0  0 
 13 17  1  0  0  0  0 
M  END
> <Name>
Pyrophosphoramide, octamethyl-

> <Source>
DougDB3DMolFile

> <Tox>
3.374

> <CAS>
152-16-9

$$$$

  CDK

 16 19  0  0  0  0  0  0  0  0999 V2000
    4.4365   -2.5608    0.0000 C   0  0  0  0  0  0  0  0  0  0  0  0
    3.3124   -1.9222    0.0000 C   0  0  0  0  0  0  0  0  0  0  0  0
    5.5273   -1.9222    0.0000 C   0  0  0  0  0  0  0  0  0  0  0  0
    4.4365   -3.8445    0.0000 C   0  0  0  0  0  0  0  0  0  0  0  0
    3.3124   -0.6385    0.0000 C   0  0  0  0  0  0  0  0  0  0  0  0
    2.2149   -2.5608    0.0000 C   0  0  0  0  0  0  0  0  0  0  0  0
    5.5273   -0.6385    0.0000 C   0  0  0  0  0  0  0  0  0  0  0  0
    6.6514   -2.5608    0.0000 C   0  0  0  0  0  0  0  0  0  0  0  0
    5.5273   -4.4830    0.0000 C   0  0  0  0  0  0  0  0  0  0  0  0
    2.2149   -3.8445    0.0000 C   0  0  0  0  0  0  0  0  0  0  0  0
    4.4365   -0.0000    0.0000 C   0  0  0  0  0  0  0  0  0  0  0  0
    1.0975   -1.9222    0.0000 C   0  0  0  0  0  0  0  0  0  0  0  0
    6.6514   -3.8445    0.0000 C   0  0  0  0  0  0  0  0  0  0  0  0
    1.0975   -4.4830    0.0000 C   0  0  0  0  0  0  0  0  0  0  0  0
    0.0000   -2.5608    0.0000 C   0  0  0  0  0  0  0  0  0  0  0  0
    0.0000   -3.8445    0.0000 C   0  0  0  0  0  0  0  0  0  0  0  0
  1  2  2  0  0  0  0 
  1  3  1  0  0  0  0 
  1  4  1  0  0  0  0 
  2  5  1  0  0  0  0 
  2  6  1  0  0  0  0 
  3  7  2  0  0  0  0 
  3  8  1  0  0  0  0 
  4  9  2  0  0  0  0 
  4 10  1  0  0  0  0 
  5 11  2  0  0  0  0 
 10  6  2  0  0  0  0 
  6 12  1  0  0  0  0 
  7 11  1  0  0  0  0 
  8 13  2  0  0  0  0 
  9 13  1  0  0  0  0 
 10 14  1  0  0  0  0 
 12 15  2  0  0  0  0 
 14 16  2  0  0  0  0 
 16 15  1  0  0  0  0 
M  END
> <Name>
Fluoranthene

> <Source>
DSSTox2DMolFile

> <Tox>
6.774

> <CAS>
206-44-0

$$$$

  CDK

 10 11  0  0  0  0  0  0  0  0999 V2000
    1.2408   -1.3601    0.0000 C   0  0  0  0  0  0  0  0  0  0  0  0
    2.3732   -0.6666    0.0000 N   0  0  0  0  0  0  0  0  0  0  0  0
   -0.0312   -0.7039    0.0000 C   0  0  0  0  0  0  0  0  0  0  0  0
    2.3732    0.6665    0.0000 N   0  0  0  0  0  0  0  0  0  0  0  0
   -0.0312    0.7039    0.0000 C   0  0  0  0  0  0  0  0  0  0  0  0
   -1.2588   -1.4057    0.0000 C   0  0  0  0  0  0  0  0  0  0  0  0
    1.2408    1.3602    0.0000 C   0  0  0  0  0  0  0  0  0  0  0  0
   -1.2588    1.4057    0.0000 C   0  0  0  0  0  0  0  0  0  0  0  0
   -2.4398   -0.7061    0.0000 C   0  0  0  0  0  0  0  0  0  0  0  0
   -2.4398    0.7061    0.0000 C   0  0  0  0  0  0  0  0  0  0  0  0
  1  2  1  0  0  0  0 
  1  3  2  0  0  0  0 
  2  4  2  0  0  0  0 
  5  3  1  0  0  0  0 
  6  3  1  0  0  0  0 
  4  7  1  0  0  0  0 
  7  5  2  0  0  0  0 
  5  8  1  0  0  0  0 
  9  6  2  0  0  0  0 
  8 10  2  0  0  0  0 
 10  9  1  0  0  0  0 
M  END
> <Name>
Phthalazine

> <Source>
DougDB3DMolFile

> <Tox>
3.114

> <CAS>
253-52-1

$$$$

  CDK

 14 16  0  0  0  0  0  0  0  0999 V2000
   -2.4755    1.4035    0.0000 C   0  0  0  0  0  0  0  0  0  0  0  0
   -3.6276    0.6808    0.0000 C   0  0  0  0  0  0  0  0  0  0  0  0
   -1.2066    0.7411    0.0000 C   0  0  0  0  0  0  0  0  0  0  0  0
   -3.5945   -0.7450    0.0000 C   0  0  0  0  0  0  0  0  0  0  0  0
   -1.1756   -0.6842    0.0000 C   0  0  0  0  0  0  0  0  0  0  0  0
    0.0000    1.4448    0.0000 C   0  0  0  0  0  0  0  0  0  0  0  0
   -2.4122   -1.4174    0.0000 C   0  0  0  0  0  0  0  0  0  0  0  0
    0.0000   -1.3679    0.0000 N   0  0  0  0  0  0  0  0  0  0  0  0
    1.2067    0.7411    0.0000 C   0  0  0  0  0  0  0  0  0  0  0  0
    1.1757   -0.6842    0.0000 C   0  0  0  0  0  0  0  0  0  0  0  0
    2.4755    1.4036    0.0000 C   0  0  0  0  0  0  0  0  0  0  0  0
    2.4122   -1.4175    0.0000 C   0  0  0  0  0  0  0  0  0  0  0  0
    3.6275    0.6807    0.0000 C   0  0  0  0  0  0  0  0  0  0  0  0
    3.5944   -0.7450    0.0000 C   0  0  0  0  0  0  0  0  0  0  0  0
  1  2  1  0  0  0  0 
  1  3  2  0  0  0  0 
  2  4  2  0  0  0  0 
  5  3  1  0  0  0  0 
  6  3  1  0  0  0  0 
  4  7  1  0  0  0  0 
  7  5  2  0  0  0  0 
  5  8  1  0  0  0  0 
  9  6  2  0  0  0  0 
  8 10  2  0  0  0  0 
 10  9  1  0  0  0  0 
 11  9  1  0  0  0  0 
 10 12  1  0  0  0  0 
 13 11  2  0  0  0  0 
 12 14  2  0  0  0  0 
 14 13  1  0  0  0  0 
M  END
> <Name>
Acridine

> <Source>
DougDB3DMolFile

> <Tox>
4.892

> <CAS>
260-94-6

$$$$

  CDK

  9 10  0  0  0  0  0  0  0  0999 V2000
    0.7831   -0.2523    0.0000 C   0  0  0  0  0  0  0  0  0  0  0  0
    0.0000   -1.3269    0.0000 C   0  0  0  0  0  0  0  0  0  0  0  0
    2.0448   -0.6613    0.0000 C   0  0  0  0  0  0  0  0  0  0  0  0
    0.7831   -2.4059    0.0000 O   0  0  0  0  0  0  0  0  0  0  0  0
    2.0448   -1.9926    0.0000 C   0  0  0  0  0  0  0  0  0  0  0  0
    3.1977   -0.0000    0.0000 C   0  0  0  0  0  0  0  0  0  0  0  0
    3.1977   -2.6582    0.0000 C   0  0  0  0  0  0  0  0  0  0  0  0
    4.3506   -0.6613    0.0000 C   0  0  0  0  0  0  0  0  0  0  0  0
    4.3506   -1.9926    0.0000 C   0  0  0  0  0  0  0  0  0  0  0  0
  1  2  2  0  0  0  0 
  1  3  1  0  0  0  0 
  2  4  1  0  0  0  0 
  5  3  2  0  0  0  0 
  3  6  1  0  0  0  0 
  4  5  1  0  0  0  0 
  5  7  1  0  0  0  0 
  6  8  2  0  0  0  0 
  9  7  2  0  0  0  0 
  8  9  1  0  0  0  0 
M  END
> <Name>
Benzofuran

> <Source>
DSSTox2DMolFile

> <Tox>
3.926

> <CAS>
271-89-6

$$$$

  CDK

 10 11  0  0  0  0  0  0  0  0999 V2000
    0.5272    0.7308    0.0000 C   0  0  0  0  0  0  0  0  0  0  0  0
   -0.5193    1.5906    0.0000 C   0  0  0  0  0  0  0  0  0  0  0  0
    1.9256    1.1275    0.0000 C   0  0  0  0  0  0  0  0  0  0  0  0
    0.5287   -0.7467    0.0000 C   0  0  0  0  0  0  0  0  0  0  0  0
   -1.9013    1.2672    0.0000 C   0  0  0  0  0  0  0  0  0  0  0  0
    2.6998   -0.0035    0.0000 C   0  0  0  0  0  0  0  0  0  0  0  0
   -0.6021   -1.6015    0.0000 C   0  0  0  0  0  0  0  0  0  0  0  0
    1.8454   -1.1635    0.0000 C   0  0  0  0  0  0  0  0  0  0  0  0
   -2.4928    0.0463    0.0000 C   0  0  0  0  0  0  0  0  0  0  0  0
   -1.9107   -1.2489    0.0000 C   0  0  0  0  0  0  0  0  0  0  0  0
  1  2  2  0  0  0  0 
  1  3  1  0  0  0  0 
  1  4  1  0  0  0  0 
  2  5  1  0  0  0  0 
  6  3  2  0  0  0  0 
  7  4  1  0  0  0  0 
  4  8  2  0  0  0  0 
  5  9  2  0  0  0  0 
  8  6  1  0  0  0  0 
 10  7  2  0  0  0  0 
  9 10  1  0  0  0  0 
M  END
> <Name>
Azulene

> <Source>
DougDB3DMolFile

> <Tox>
4.154

> <CAS>
275-51-4

$$$$

  CDK

  8  9  0  0  0  0  0  0  0  0999 V2000
    1.2604   -0.0000    0.0000 N   0  0  0  0  0  0  0  0  0  0  0  0
    2.5179   -0.7173    0.0000 C   0  0  0  0  0  0  0  0  0  0  0  0
    0.0000   -0.7173    0.0000 C   0  0  0  0  0  0  0  0  0  0  0  0
    1.8383   -0.9264    0.0000 C   0  0  0  0  0  0  0  0  0  0  0  0
    2.5179   -2.1868    0.0000 C   0  0  0  0  0  0  0  0  0  0  0  0
    0.0000   -2.1868    0.0000 C   0  0  0  0  0  0  0  0  0  0  0  0
    1.8383   -1.9777    0.0000 C   0  0  0  0  0  0  0  0  0  0  0  0
    1.2604   -2.9042    0.0000 N   0  0  0  0  0  0  0  0  0  0  0  0
  1  2  1  0  0  0  0 
  1  3  1  0  0  0  0 
  1  4  1  0  0  0  0 
  2  5  1  0  0  0  0 
  6  3  1  0  0  0  0 
  4  7  1  0  0  0  0 
  8  5  1  0  0  0  0 
  8  6  1  0  0  0  0 
  8  7  1  0  0  0  0 
M  END
> <Name>
1,4-Diazabicyclo(2.2.2)octane

> <Source>
DSSTox2DMolFile

> <Tox>
1.812

> <CAS>
280-57-9

$$$$

  CDK

 10 12  0  0  0  0  0  0  0  0999 V2000
    0.5618   -2.0809    0.0000 C   0  0  0  0  0  0  0  0  0  0  0  0
    1.8110   -2.5611    0.0000 C   0  0  0  0  0  0  0  0  0  0  0  0
    0.5618   -0.6560    0.0000 C   0  0  0  0  0  0  0  0  0  0  0  0
    0.0000   -3.1386    0.0000 C   0  0  0  0  0  0  0  0  0  0  0  0
    2.9157   -2.0024    0.0000 C   0  0  0  0  0  0  0  0  0  0  0  0
    1.7764   -0.0000    0.0000 C   0  0  0  0  0  0  0  0  0  0  0  0
    1.0263   -2.6898    0.0000 C   0  0  0  0  0  0  0  0  0  0  0  0
    2.3539   -3.1386    0.0000 C   0  0  0  0  0  0  0  0  0  0  0  0
    2.9157   -0.6717    0.0000 C   0  0  0  0  0  0  0  0  0  0  0  0
    1.0263   -1.0075    0.0000 C   0  0  0  0  0  0  0  0  0  0  0  0
  1  2  1  0  0  0  0 
  1  3  1  0  0  0  0 
  1  4  1  0  0  0  0 
  5  2  1  0  0  0  0 
  6  3  1  0  0  0  0 
  7  4  1  0  0  0  0 
  5  8  1  0  0  0  0 
  5  9  1  0  0  0  0 
  6  9  1  0  0  0  0 
  6 10  1  0  0  0  0 
  7  8  1  0  0  0  0 
  7 10  1  0  0  0  0 
M  END
> <Name>
Tricyclo(3.3.1.13,7)decane

> <Source>
DSSTox2DMolFile

> <Tox>
5.679

> <CAS>
281-23-2

$$$$

  CDK

 16 16  0  0  0  0  0  0  0  0999 V2000
    5.4978   -2.9728    0.0000 S   0  0  0  0  0  0  0  0  0  0  0  0
    6.6529   -2.3012    0.0000 P   0  0  0  0  0  0  0  0  0  0  0  0
    5.9813   -1.1551    0.0000 O   0  0  0  0  0  0  0  0  0  0  0  0
    7.7990   -1.6386    0.0000 O   0  0  0  0  0  0  0  0  0  0  0  0
    7.3155   -3.4563    0.0000 O   0  0  0  0  0  0  0  0  0  0  0  0
    4.6561   -1.1551    0.0000 C   0  0  0  0  0  0  0  0  0  0  0  0
    8.9541   -2.3012    0.0000 C   0  0  0  0  0  0  0  0  0  0  0  0
    8.6497   -3.4563    0.0000 C   0  0  0  0  0  0  0  0  0  0  0  0
    3.9935   -2.3012    0.0000 C   0  0  0  0  0  0  0  0  0  0  0  0
    3.9935   -0.0000    0.0000 C   0  0  0  0  0  0  0  0  0  0  0  0
    2.6594   -2.3012    0.0000 C   0  0  0  0  0  0  0  0  0  0  0  0
    2.6594   -0.0000    0.0000 C   0  0  0  0  0  0  0  0  0  0  0  0
    1.9968   -1.1551    0.0000 C   0  0  0  0  0  0  0  0  0  0  0  0
    0.6626   -1.1551    0.0000 N   0  0  0  0  0  0  0  0  0  0  0  0
    0.0000   -2.3012    0.0000 O   0  0  0  0  0  0  0  0  0  0  0  0
    0.0000   -0.0000    0.0000 O   0  0  0  0  0  0  0  0  0  0  0  0
  1  2  2  0  0  0  0 
  2  3  1  0  0  0  0 
  2  4  1  0  0  0  0 
  2  5  1  0  0  0  0 
  3  6  1  0  0  0  0 
  4  7  1  0  0  0  0 
  5  8  1  0  0  0  0 
  6  9  2  0  0  0  0 
  6 10  1  0  0  0  0 
  9 11  1  0  0  0  0 
 12 10  2  0  0  0  0 
 11 13  2  0  0  0  0 
 13 12  1  0  0  0  0 
 13 14  1  0  0  0  0 
 14 15  2  0  0  0  0 
 14 16  1  0  0  0  0 
M  CHG  1  14   1
M  CHG  1  16  -1
M  END
> <Name>
Phosphorothioic acid, O,O-dimethyl O-(4-nitrophenyl) ester

> <Source>
DSSTox2DMolFile

> <Tox>
4.508

> <CAS>
298-00-0

$$$$

  CDK

 13 12  0  0  0  0  0  0  0  0999 V2000
    4.6591   -1.1561    0.0000 P   0  0  0  0  0  0  0  0  0  0  0  0
    3.9836   -2.3052    0.0000 S   0  0  0  0  0  0  0  0  0  0  0  0
    5.3138   -0.0000    0.0000 S   0  0  0  0  0  0  0  0  0  0  0  0
    5.8083   -1.8107    0.0000 O   0  0  0  0  0  0  0  0  0  0  0  0
    3.5031   -0.4805    0.0000 O   0  0  0  0  0  0  0  0  0  0  0  0
    2.6604   -2.3052    0.0000 C   0  0  0  0  0  0  0  0  0  0  0  0
    5.8083   -3.1409    0.0000 C   0  0  0  0  0  0  0  0  0  0  0  0
    2.3539   -1.1561    0.0000 C   0  0  0  0  0  0  0  0  0  0  0  0
    1.9988   -3.4404    0.0000 S   0  0  0  0  0  0  0  0  0  0  0  0
    6.9643   -3.8095    0.0000 C   0  0  0  0  0  0  0  0  0  0  0  0
    1.1979   -0.4805    0.0000 C   0  0  0  0  0  0  0  0  0  0  0  0
    0.6755   -3.4404    0.0000 C   0  0  0  0  0  0  0  0  0  0  0  0
    0.0000   -4.5965    0.0000 C   0  0  0  0  0  0  0  0  0  0  0  0
  1  2  1  0  0  0  0 
  1  3  2  0  0  0  0 
  1  4  1  0  0  0  0 
  1  5  1  0  0  0  0 
  2  6  1  0  0  0  0 
  4  7  1  0  0  0  0 
  5  8  1  0  0  0  0 
  6  9  1  0  0  0  0 
  7 10  1  0  0  0  0 
  8 11  1  0  0  0  0 
  9 12  1  0  0  0  0 
 12 13  1  0  0  0  0 
M  END
> <Name>
Phosphorodithioic acid, O,O-diethyl S-(ethylthio)methyl ester

> <Source>
DSSTox2DMolFile

> <Tox>
6.018

> <CAS>
298-02-2

$$$$

  CDK

 14 13  0  0  0  0  0  0  0  0999 V2000
    1.1516   -0.0000    0.0000 C   0  0  0  0  0  0  0  0  0  0  0  0
    0.0000   -0.6684    0.0000 C   0  0  0  0  0  0  0  0  0  0  0  0
    0.0000   -1.9973    0.0000 O   0  0  0  0  0  0  0  0  0  0  0  0
    1.1516   -2.6576    0.0000 P   0  0  0  0  0  0  0  0  0  0  0  0
    0.4832   -3.8093    0.0000 O   0  0  0  0  0  0  0  0  0  0  0  0
    1.8120   -1.5060    0.0000 S   0  0  0  0  0  0  0  0  0  0  0  0
    2.3033   -3.3261    0.0000 S   0  0  0  0  0  0  0  0  0  0  0  0
    1.1516   -4.9609    0.0000 C   0  0  0  0  0  0  0  0  0  0  0  0
    3.4549   -2.6576    0.0000 C   0  0  0  0  0  0  0  0  0  0  0  0
    2.4805   -4.9609    0.0000 C   0  0  0  0  0  0  0  0  0  0  0  0
    4.5985   -3.3261    0.0000 C   0  0  0  0  0  0  0  0  0  0  0  0
    5.7502   -2.6576    0.0000 S   0  0  0  0  0  0  0  0  0  0  0  0
    6.9018   -3.3261    0.0000 C   0  0  0  0  0  0  0  0  0  0  0  0
    8.0535   -2.6576    0.0000 C   0  0  0  0  0  0  0  0  0  0  0  0
  1  2  1  0  0  0  0 
  2  3  1  0  0  0  0 
  3  4  1  0  0  0  0 
  4  5  1  0  0  0  0 
  4  6  2  0  0  0  0 
  4  7  1  0  0  0  0 
  5  8  1  0  0  0  0 
  7  9  1  0  0  0  0 
  8 10  1  0  0  0  0 
  9 11  1  0  0  0  0 
 11 12  1  0  0  0  0 
 12 13  1  0  0  0  0 
 13 14  1  0  0  0  0 
M  END
> <Name>
Phosphorodithioic acid, O,O-diethyl S-(2-(ethylthio)ethyl) ester

> <Source>
DSSTox2DMolFile

> <Tox>
4.854

> <CAS>
298-04-4

$$$$

  CDK

 16 16  0  0  0  0  0  0  0  0999 V2000
    5.7627   -2.3083    0.0000 P   0  0  0  0  0  0  0  0  0  0  0  0
    4.6086   -2.9621    0.0000 O   0  0  0  0  0  0  0  0  0  0  0  0
    6.4407   -3.4625    0.0000 S   0  0  0  0  0  0  0  0  0  0  0  0
    5.1090   -1.1542    0.0000 O   0  0  0  0  0  0  0  0  0  0  0  0
    6.9169   -1.6384    0.0000 O   0  0  0  0  0  0  0  0  0  0  0  0
    3.4625   -2.3083    0.0000 C   0  0  0  0  0  0  0  0  0  0  0  0
    5.7627   -0.0000    0.0000 C   0  0  0  0  0  0  0  0  0  0  0  0
    8.0710   -2.3083    0.0000 C   0  0  0  0  0  0  0  0  0  0  0  0
    2.3083   -2.9621    0.0000 C   0  0  0  0  0  0  0  0  0  0  0  0
    3.4625   -0.9766    0.0000 C   0  0  0  0  0  0  0  0  0  0  0  0
    1.1542   -2.3083    0.0000 C   0  0  0  0  0  0  0  0  0  0  0  0
    2.3083   -0.3067    0.0000 C   0  0  0  0  0  0  0  0  0  0  0  0
    4.6086   -0.3067    0.0000 Cl  0  0  0  0  0  0  0  0  0  0  0  0
    0.0000   -2.9621    0.0000 Cl  0  0  0  0  0  0  0  0  0  0  0  0
    1.1542   -0.9766    0.0000 C   0  0  0  0  0  0  0  0  0  0  0  0
    0.0000   -0.3067    0.0000 Cl  0  0  0  0  0  0  0  0  0  0  0  0
  1  2  1  0  0  0  0 
  1  3  2  0  0  0  0 
  1  4  1  0  0  0  0 
  1  5  1  0  0  0  0 
  6  2  1  0  0  0  0 
  4  7  1  0  0  0  0 
  5  8  1  0  0  0  0 
  6  9  1  0  0  0  0 
  6 10  2  0  0  0  0 
  9 11  2  0  0  0  0 
 12 10  1  0  0  0  0 
 10 13  1  0  0  0  0 
 11 14  1  0  0  0  0 
 11 15  1  0  0  0  0 
 12 15  2  0  0  0  0 
 15 16  1  0  0  0  0 
M  END
> <Name>
Phosphorothioic acid, O,O-dimethyl O-(2,4,5-trichlorophenyl) ester

> <Source>
DSSTox2DMolFile

> <Tox>
6.023

> <CAS>
299-84-3

$$$$

  CDK

 18 21  0  0  0  0  0  0  0  0999 V2000
    4.3850   -2.1587    0.0000 C   0  0  0  0  0  0  0  0  0  0  0  0
    3.2104   -2.1095    0.0000 C   0  0  0  0  0  0  0  0  0  0  0  0
    4.1821   -0.9164    0.0000 C   0  0  0  0  0  0  0  0  0  0  0  0
    5.1845   -3.0750    0.0000 C   0  0  0  0  0  0  0  0  0  0  0  0
    5.3567   -1.7958    0.0000 Cl  0  0  0  0  0  0  0  0  0  0  0  0
    2.5400   -3.2473    0.0000 C   0  0  0  0  0  0  0  0  0  0  0  0
    1.9188   -2.6568    0.0000 C   0  0  0  0  0  0  0  0  0  0  0  0
    3.8869   -3.2473    0.0000 C   0  0  0  0  0  0  0  0  0  0  0  0
    3.3887   -0.0000    0.0000 Cl  0  0  0  0  0  0  0  0  0  0  0  0
    5.0615   -0.3260    0.0000 Cl  0  0  0  0  0  0  0  0  0  0  0  0
    4.6126   -4.2128    0.0000 C   0  0  0  0  0  0  0  0  0  0  0  0
    6.1501   -2.7798    0.0000 Cl  0  0  0  0  0  0  0  0  0  0  0  0
    1.3653   -3.6962    0.0000 C   0  0  0  0  0  0  0  0  0  0  0  0
    1.6052   -4.8340    0.0000 C   0  0  0  0  0  0  0  0  0  0  0  0
    0.7073   -2.0726    0.0000 C   0  0  0  0  0  0  0  0  0  0  0  0
    3.2657   -4.4404    0.0000 Cl  0  0  0  0  0  0  0  0  0  0  0  0
    4.5449   -5.2337    0.0000 Cl  0  0  0  0  0  0  0  0  0  0  0  0
    0.0000   -3.0750    0.0000 C   0  0  0  0  0  0  0  0  0  0  0  0
  1  2  1  0  0  0  0 
  1  3  1  0  0  0  0 
  1  4  1  0  0  0  0 
  1  5  1  0  0  0  0 
  2  6  1  0  0  0  0 
  2  7  1  0  0  0  0 
  3  8  1  0  0  0  0 
  3  9  1  0  0  0  0 
  3 10  1  0  0  0  0 
  4 11  2  0  0  0  0 
  4 12  1  0  0  0  0 
  6 13  1  0  0  0  0 
  6  8  1  0  0  0  0 
  7 14  1  0  0  0  0 
  7 15  1  0  0  0  0 
  8 16  1  0  0  0  0 
  8 11  1  0  0  0  0 
 11 17  1  0  0  0  0 
 13 18  1  0  0  0  0 
 13 14  1  0  0  0  0 
 15 18  2  0  0  0  0 
M  END
> <Name>
1,4:5,8-Dimethanonaphthalene, 1,2,3,4,10,10-hexachloro-1,4,4a,5,8,8a-hexahydro-, endo,exo-

> <Source>
DSSTox2DMolFile

> <Tox>
7.086

> <CAS>
309-00-2

$$$$

  CDK

 18 18  0  0  0  0  0  0  0  0999 V2000
    0.6670   -4.5983    0.0000 N   0  0  0  0  0  0  0  0  0  0  0  0
    1.9909   -4.5983    0.0000 C   0  0  0  0  0  0  0  0  0  0  0  0
    0.0000   -3.4462    0.0000 O   0  0  0  0  0  0  0  0  0  0  0  0
    0.0000   -5.7504    0.0000 O   0  0  0  0  0  0  0  0  0  0  0  0
    2.6579   -5.7504    0.0000 C   0  0  0  0  0  0  0  0  0  0  0  0
    2.6579   -3.4462    0.0000 C   0  0  0  0  0  0  0  0  0  0  0  0
    3.9919   -5.7504    0.0000 C   0  0  0  0  0  0  0  0  0  0  0  0
    3.9919   -3.4462    0.0000 C   0  0  0  0  0  0  0  0  0  0  0  0
    4.6589   -4.5983    0.0000 C   0  0  0  0  0  0  0  0  0  0  0  0
    5.9727   -4.5983    0.0000 O   0  0  0  0  0  0  0  0  0  0  0  0
    6.6599   -3.4462    0.0000 P   0  0  0  0  0  0  0  0  0  0  0  0
    5.4977   -2.7792    0.0000 O   0  0  0  0  0  0  0  0  0  0  0  0
    7.3168   -2.3042    0.0000 O   0  0  0  0  0  0  0  0  0  0  0  0
    7.8120   -4.1334    0.0000 O   0  0  0  0  0  0  0  0  0  0  0  0
    6.6700   -1.1521    0.0000 C   0  0  0  0  0  0  0  0  0  0  0  0
    8.9540   -3.4563    0.0000 C   0  0  0  0  0  0  0  0  0  0  0  0
    7.3168   -0.0000    0.0000 C   0  0  0  0  0  0  0  0  0  0  0  0
   10.1061   -4.1334    0.0000 C   0  0  0  0  0  0  0  0  0  0  0  0
  1  2  1  0  0  0  0 
  1  3  1  0  0  0  0 
  1  4  2  0  0  0  0 
  2  5  2  0  0  0  0 
  2  6  1  0  0  0  0 
  5  7  1  0  0  0  0 
  6  8  2  0  0  0  0 
  9  7  2  0  0  0  0 
  9  8  1  0  0  0  0 
 10  9  1  0  0  0  0 
 11 10  1  0  0  0  0 
 11 12  2  0  0  0  0 
 11 13  1  0  0  0  0 
 11 14  1  0  0  0  0 
 13 15  1  0  0  0  0 
 14 16  1  0  0  0  0 
 15 17  1  0  0  0  0 
 16 18  1  0  0  0  0 
M  CHG  1   1   1
M  CHG  1   3  -1
M  END
> <Name>
Phosphoric acid, diethyl 4-nitrophenyl ester

> <Source>
DSSTox2DMolFile

> <Tox>
5.981

> <CAS>
311-45-5

$$$$

  CDK

 14 14  0  0  0  0  0  0  0  0999 V2000
    4.6549   -0.0000    0.0000 Br  0  0  0  0  0  0  0  0  0  0  0  0
    3.9907   -1.1547    0.0000 C   0  0  0  0  0  0  0  0  0  0  0  0
    4.6549   -2.3035    0.0000 C   0  0  0  0  0  0  0  0  0  0  0  0
    2.6565   -1.1547    0.0000 C   0  0  0  0  0  0  0  0  0  0  0  0
    5.9831   -2.3035    0.0000 C   0  0  0  0  0  0  0  0  0  0  0  0
    3.9907   -3.4582    0.0000 N   0  0  0  0  0  0  0  0  0  0  0  0
    1.9924   -2.3035    0.0000 N   0  0  0  0  0  0  0  0  0  0  0  0
    1.9924   -0.0000    0.0000 O   0  0  0  0  0  0  0  0  0  0  0  0
    2.6565   -3.4582    0.0000 C   0  0  0  0  0  0  0  0  0  0  0  0
    0.6641   -2.3035    0.0000 C   0  0  0  0  0  0  0  0  0  0  0  0
    1.9924   -4.6070    0.0000 O   0  0  0  0  0  0  0  0  0  0  0  0
    0.0000   -1.1547    0.0000 C   0  0  0  0  0  0  0  0  0  0  0  0
    0.0000   -3.4582    0.0000 C   0  0  0  0  0  0  0  0  0  0  0  0
    0.6641   -4.6070    0.0000 C   0  0  0  0  0  0  0  0  0  0  0  0
  1  2  1  0  0  0  0 
  2  3  2  0  0  0  0 
  2  4  1  0  0  0  0 
  3  5  1  0  0  0  0 
  3  6  1  0  0  0  0 
  7  4  1  0  0  0  0 
  4  8  2  0  0  0  0 
  6  9  1  0  0  0  0 
  9  7  1  0  0  0  0 
  7 10  1  0  0  0  0 
  9 11  2  0  0  0  0 
 10 12  1  0  0  0  0 
 10 13  1  0  0  0  0 
 13 14  1  0  0  0  0 
M  END
> <Name>
2,4(1H,3H)-Pyrimidinedione, 5-bromo-6-methyl-3-(1-methylpropyl)-

> <Source>
DSSTox2DMolFile

> <Tox>
3.152

> <CAS>
314-40-9

$$$$

  CDK

 16 16  0  0  0  0  0  0  0  0999 V2000
    1.1532   -3.9920    0.0000 C   0  0  0  0  0  0  0  0  0  0  0  0
    2.3065   -3.3307    0.0000 C   0  0  0  0  0  0  0  0  0  0  0  0
    2.3065   -2.0000    0.0000 C   0  0  0  0  0  0  0  0  0  0  0  0
    3.4597   -3.9920    0.0000 C   0  0  0  0  0  0  0  0  0  0  0  0
    3.4597   -1.3307    0.0000 C   0  0  0  0  0  0  0  0  0  0  0  0
    1.1532   -1.3307    0.0000 N   0  0  0  0  0  0  0  0  0  0  0  0
    4.6049   -3.3307    0.0000 C   0  0  0  0  0  0  0  0  0  0  0  0
    4.6049   -2.0000    0.0000 C   0  0  0  0  0  0  0  0  0  0  0  0
    3.4597   -0.0000    0.0000 C   0  0  0  0  0  0  0  0  0  0  0  0
    0.0000   -2.0000    0.0000 C   0  0  0  0  0  0  0  0  0  0  0  0
    1.1532   -0.0000    0.0000 C   0  0  0  0  0  0  0  0  0  0  0  0
    5.7581   -3.9920    0.0000 O   0  0  0  0  0  0  0  0  0  0  0  0
    6.9114   -3.3307    0.0000 C   0  0  0  0  0  0  0  0  0  0  0  0
    6.9114   -2.0000    0.0000 O   0  0  0  0  0  0  0  0  0  0  0  0
    8.0646   -3.9920    0.0000 N   0  0  0  0  0  0  0  0  0  0  0  0
    8.0646   -5.3226    0.0000 C   0  0  0  0  0  0  0  0  0  0  0  0
  1  2  1  0  0  0  0 
  2  3  2  0  0  0  0 
  2  4  1  0  0  0  0 
  3  5  1  0  0  0  0 
  3  6  1  0  0  0  0 
  7  4  2  0  0  0  0 
  5  8  2  0  0  0  0 
  5  9  1  0  0  0  0 
  6 10  1  0  0  0  0 
  6 11  1  0  0  0  0 
  8  7  1  0  0  0  0 
  7 12  1  0  0  0  0 
 12 13  1  0  0  0  0 
 13 14  2  0  0  0  0 
 13 15  1  0  0  0  0 
 15 16  1  0  0  0  0 
M  END
> <Name>
Phenol, 4-(dimethylamino)-3,5-dimethyl-, methylcarbamate (ester) (9CI)

> <Source>
DSSTox2DMolFile

> <Tox>
4.116

> <CAS>
315-18-4

$$$$

  CDK

 17 17  0  0  0  0  0  0  0  0999 V2000
   -3.7680    0.8739   -0.2554 C   0  0  0  0  0  0  0  0  0  0  0  0
   -4.0424    1.5774   -1.5557 C   0  0  0  0  0  0  0  0  0  0  0  0
   -2.4217   -0.3690   -0.4006 P   0  0  0  0  0  0  0  0  0  0  0  0
   -2.4765   -1.2502    1.0523 O   0  0  0  0  0  0  0  0  0  0  0  0
   -1.1347    0.7364   -0.0320 O   0  0  0  0  0  0  0  0  0  0  0  0
   -2.2997   -1.5079   -1.9499 S   0  0  0  0  0  0  0  0  0  0  0  0
   -2.5486   -0.6594    2.3239 C   0  0  0  0  0  0  0  0  0  0  0  0
    0.2040    0.5218   -0.0422 C   0  0  0  0  0  0  0  0  0  0  0  0
   -2.7532   -1.7610    3.3506 C   0  0  0  0  0  0  0  0  0  0  0  0
    1.0075    1.6673    0.1384 C   0  0  0  0  0  0  0  0  0  0  0  0
    0.8054   -0.7352   -0.1916 C   0  0  0  0  0  0  0  0  0  0  0  0
    2.3927    1.5528    0.1738 C   0  0  0  0  0  0  0  0  0  0  0  0
    0.3146    3.1917    0.3178 Cl  0  0  0  0  0  0  0  0  0  0  0  0
    2.1931   -0.8335   -0.1543 C   0  0  0  0  0  0  0  0  0  0  0  0
    2.9847    0.3012    0.0293 C   0  0  0  0  0  0  0  0  0  0  0  0
    2.9209   -2.3349   -0.3334 Cl  0  0  0  0  0  0  0  0  0  0  0  0
    4.6584    0.1582    0.0735 Cl  0  0  0  0  0  0  0  0  0  0  0  0
  1  2  1  0  0  0  0 
  1  3  1  0  0  0  0 
  3  4  1  0  0  0  0 
  3  5  1  0  0  0  0 
  3  6  2  0  0  0  0 
  4  7  1  0  0  0  0 
  5  8  1  0  0  0  0 
  7  9  1  0  0  0  0 
  8 10  1  0  0  0  0 
  8 11  2  0  0  0  0 
 10 12  2  0  0  0  0 
 10 13  1  0  0  0  0 
 14 11  1  0  0  0  0 
 12 15  1  0  0  0  0 
 15 14  2  0  0  0  0 
 14 16  1  0  0  0  0 
 15 17  1  0  0  0  0 
M  END
> <Name>
Phosphonothioic acid, ethyl-, O-ethyl O-(2,4,5-trichlorophenyl) ester

> <Source>
DougDB3DMolFile

> <Tox>
6.171

> <CAS>
327-98-0

$$$$

  CDK

 13 13  0  0  0  0  0  0  0  0999 V2000
    4.6563   -0.0000    0.0000 O   0  0  0  0  0  0  0  0  0  0  0  0
    3.9911   -1.1574    0.0000 C   0  0  0  0  0  0  0  0  0  0  0  0
    4.6563   -2.3082    0.0000 C   0  0  0  0  0  0  0  0  0  0  0  0
    2.6607   -1.1574    0.0000 C   0  0  0  0  0  0  0  0  0  0  0  0
    5.9867   -2.3082    0.0000 N   0  0  0  0  0  0  0  0  0  0  0  0
    3.9911   -3.4590    0.0000 C   0  0  0  0  0  0  0  0  0  0  0  0
    1.9956   -2.3082    0.0000 C   0  0  0  0  0  0  0  0  0  0  0  0
    6.6519   -3.4590    0.0000 O   0  0  0  0  0  0  0  0  0  0  0  0
    6.6519   -1.1574    0.0000 O   0  0  0  0  0  0  0  0  0  0  0  0
    2.6607   -3.4590    0.0000 C   0  0  0  0  0  0  0  0  0  0  0  0
    0.6652   -2.3082    0.0000 N   0  0  0  0  0  0  0  0  0  0  0  0
    0.0000   -1.1574    0.0000 O   0  0  0  0  0  0  0  0  0  0  0  0
    0.0000   -3.4590    0.0000 O   0  0  0  0  0  0  0  0  0  0  0  0
  1  2  1  0  0  0  0 
  2  3  2  0  0  0  0 
  2  4  1  0  0  0  0 
  3  5  1  0  0  0  0 
  3  6  1  0  0  0  0 
  7  4  2  0  0  0  0 
  5  8  2  0  0  0  0 
  5  9  1  0  0  0  0 
  6 10  2  0  0  0  0 
 10  7  1  0  0  0  0 
  7 11  1  0  0  0  0 
 11 12  1  0  0  0  0 
 11 13  2  0  0  0  0 
M  CHG  1   5   1
M  CHG  1   9  -1
M  CHG  1  11   1
M  CHG  1  12  -1
M  END
> <Name>
Phenol, 2,5-dinitro-

> <Source>
DSSTox2DMolFile

> <Tox>
4.739

> <CAS>
329-71-5

$$$$

  CDK

 14 14  0  0  0  0  0  0  0  0999 V2000
    0.0000   -2.6606    0.0000 Cl  0  0  0  0  0  0  0  0  0  0  0  0
    1.1541   -1.9972    0.0000 C   0  0  0  0  0  0  0  0  0  0  0  0
    1.1541   -0.6634    0.0000 C   0  0  0  0  0  0  0  0  0  0  0  0
    2.3012   -2.6606    0.0000 C   0  0  0  0  0  0  0  0  0  0  0  0
    2.3012   -0.0000    0.0000 C   0  0  0  0  0  0  0  0  0  0  0  0
    0.0000   -0.0000    0.0000 Cl  0  0  0  0  0  0  0  0  0  0  0  0
    3.4553   -1.9972    0.0000 C   0  0  0  0  0  0  0  0  0  0  0  0
    3.4553   -0.6634    0.0000 C   0  0  0  0  0  0  0  0  0  0  0  0
    4.6093   -2.6606    0.0000 N   0  0  0  0  0  0  0  0  0  0  0  0
    5.7565   -1.9972    0.0000 C   0  0  0  0  0  0  0  0  0  0  0  0
    6.9106   -2.6606    0.0000 O   0  0  0  0  0  0  0  0  0  0  0  0
    5.7565   -0.6634    0.0000 N   0  0  0  0  0  0  0  0  0  0  0  0
    6.9106   -0.0000    0.0000 C   0  0  0  0  0  0  0  0  0  0  0  0
    4.6093   -0.0000    0.0000 C   0  0  0  0  0  0  0  0  0  0  0  0
  1  2  1  0  0  0  0 
  2  3  2  0  0  0  0 
  2  4  1  0  0  0  0 
  3  5  1  0  0  0  0 
  3  6  1  0  0  0  0 
  7  4  2  0  0  0  0 
  5  8  2  0  0  0  0 
  8  7  1  0  0  0  0 
  7  9  1  0  0  0  0 
  9 10  1  0  0  0  0 
 10 11  2  0  0  0  0 
 10 12  1  0  0  0  0 
 12 13  1  0  0  0  0 
 12 14  1  0  0  0  0 
M  END
> <Name>
Urea, N'-(3,4-dichlorophenyl)-N,N-dimethyl-

> <Source>
DSSTox2DMolFile

> <Tox>
4.215

> <CAS>
330-54-1

$$$$

  CDK

 15 16  0  0  0  0  0  0  0  0999 V2000
    6.9060   -0.0000    0.0000 C   0  0  0  0  0  0  0  0  0  0  0  0
    8.0570   -0.6630    0.0000 C   0  0  0  0  0  0  0  0  0  0  0  0
    5.7550   -0.6630    0.0000 C   0  0  0  0  0  0  0  0  0  0  0  0
    8.0570   -1.9981    0.0000 C   0  0  0  0  0  0  0  0  0  0  0  0
    5.7550   -1.9981    0.0000 C   0  0  0  0  0  0  0  0  0  0  0  0
    4.6040   -0.0000    0.0000 O   0  0  0  0  0  0  0  0  0  0  0  0
    9.2080   -2.6611    0.0000 F   0  0  0  0  0  0  0  0  0  0  0  0
    6.9060   -2.6611    0.0000 C   0  0  0  0  0  0  0  0  0  0  0  0
    3.4530   -0.6630    0.0000 C   0  0  0  0  0  0  0  0  0  0  0  0
    3.4530   -1.9981    0.0000 C   0  0  0  0  0  0  0  0  0  0  0  0
    2.3020   -0.0000    0.0000 C   0  0  0  0  0  0  0  0  0  0  0  0
    2.3020   -2.6611    0.0000 C   0  0  0  0  0  0  0  0  0  0  0  0
    1.1510   -0.6630    0.0000 C   0  0  0  0  0  0  0  0  0  0  0  0
    1.1510   -1.9981    0.0000 C   0  0  0  0  0  0  0  0  0  0  0  0
    0.0000   -2.6611    0.0000 F   0  0  0  0  0  0  0  0  0  0  0  0
  1  2  2  0  0  0  0 
  1  3  1  0  0  0  0 
  2  4  1  0  0  0  0 
  5  3  2  0  0  0  0 
  3  6  1  0  0  0  0 
  4  7  1  0  0  0  0 
  4  8  2  0  0  0  0 
  8  5  1  0  0  0  0 
  6  9  1  0  0  0  0 
  9 10  2  0  0  0  0 
  9 11  1  0  0  0  0 
 10 12  1  0  0  0  0 
 13 11  2  0  0  0  0 
 12 14  2  0  0  0  0 
 14 13  1  0  0  0  0 
 14 15  1  0  0  0  0 
M  END
> <Name>
Benzene, 1,1'-oxybis(4-fluoro- (9CI)

> <Source>
DSSTox2DMolFile

> <Tox>
5.262

> <CAS>
330-93-8

$$$$

  CDK

 19 19  0  0  0  0  0  0  0  0999 V2000
    4.8313   -4.1140    0.0000 S   0  0  0  0  0  0  0  0  0  0  0  0
    5.9808   -3.4571    0.0000 P   0  0  0  0  0  0  0  0  0  0  0  0
    5.3153   -2.2990    0.0000 O   0  0  0  0  0  0  0  0  0  0  0  0
    7.1389   -2.7916    0.0000 O   0  0  0  0  0  0  0  0  0  0  0  0
    6.6463   -4.6066    0.0000 O   0  0  0  0  0  0  0  0  0  0  0  0
    3.9930   -2.2990    0.0000 C   0  0  0  0  0  0  0  0  0  0  0  0
    7.1389   -1.4606    0.0000 C   0  0  0  0  0  0  0  0  0  0  0  0
    7.9773   -4.6066    0.0000 C   0  0  0  0  0  0  0  0  0  0  0  0
    3.3275   -3.4571    0.0000 N   0  0  0  0  0  0  0  0  0  0  0  0
    3.3275   -1.1495    0.0000 C   0  0  0  0  0  0  0  0  0  0  0  0
    8.2884   -0.7951    0.0000 C   0  0  0  0  0  0  0  0  0  0  0  0
    8.6428   -3.4571    0.0000 C   0  0  0  0  0  0  0  0  0  0  0  0
    1.9965   -3.4571    0.0000 C   0  0  0  0  0  0  0  0  0  0  0  0
    1.9965   -1.1495    0.0000 C   0  0  0  0  0  0  0  0  0  0  0  0
    1.3310   -2.2990    0.0000 N   0  0  0  0  0  0  0  0  0  0  0  0
    1.3310   -4.6066    0.0000 C   0  0  0  0  0  0  0  0  0  0  0  0
    1.3310   -0.0000    0.0000 C   0  0  0  0  0  0  0  0  0  0  0  0
    1.9965   -5.7561    0.0000 C   0  0  0  0  0  0  0  0  0  0  0  0
    0.0000   -4.6066    0.0000 C   0  0  0  0  0  0  0  0  0  0  0  0
  1  2  2  0  0  0  0 
  2  3  1  0  0  0  0 
  2  4  1  0  0  0  0 
  2  5  1  0  0  0  0 
  3  6  1  0  0  0  0 
  4  7  1  0  0  0  0 
  5  8  1  0  0  0  0 
  6  9  2  0  0  0  0 
  6 10  1  0  0  0  0 
  7 11  1  0  0  0  0 
  8 12  1  0  0  0  0 
  9 13  1  0  0  0  0 
 14 10  2  0  0  0  0 
 13 15  2  0  0  0  0 
 13 16  1  0  0  0  0 
 15 14  1  0  0  0  0 
 14 17  1  0  0  0  0 
 16 18  1  0  0  0  0 
 16 19  1  0  0  0  0 
M  END
> <Name>
Phosphorothioic acid, O,O-diethyl O-(6-methyl-2-(1-methylethyl)-4-pyrimidinyl) ester

> <Source>
DSSTox2DMolFile

> <Tox>
4.811

> <CAS>
333-41-5

$$$$

  CDK

 10 10  0  0  0  0  0  0  0  0999 V2000
    5.9822   -1.1546    0.0000 F   0  0  0  0  0  0  0  0  0  0  0  0
    4.6542   -1.1546    0.0000 C   0  0  0  0  0  0  0  0  0  0  0  0
    3.9901   -2.3031    0.0000 C   0  0  0  0  0  0  0  0  0  0  0  0
    3.9901   -0.0000    0.0000 C   0  0  0  0  0  0  0  0  0  0  0  0
    2.6561   -2.3031    0.0000 C   0  0  0  0  0  0  0  0  0  0  0  0
    2.6561   -0.0000    0.0000 C   0  0  0  0  0  0  0  0  0  0  0  0
    1.9921   -1.1546    0.0000 C   0  0  0  0  0  0  0  0  0  0  0  0
    0.6640   -1.1546    0.0000 N   0  0  0  0  0  0  0  0  0  0  0  0
    0.0000   -2.3031    0.0000 O   0  0  0  0  0  0  0  0  0  0  0  0
    0.0000   -0.0000    0.0000 O   0  0  0  0  0  0  0  0  0  0  0  0
  1  2  1  0  0  0  0 
  2  3  2  0  0  0  0 
  2  4  1  0  0  0  0 
  3  5  1  0  0  0  0 
  6  4  2  0  0  0  0 
  5  7  2  0  0  0  0 
  7  6  1  0  0  0  0 
  7  8  1  0  0  0  0 
  8  9  2  0  0  0  0 
  8 10  1  0  0  0  0 
M  CHG  1   8   1
M  CHG  1  10  -1
M  END
> <Name>
Benzene, 1-fluoro-4-nitro-

> <Source>
DSSTox2DMolFile

> <Tox>
3.696

> <CAS>
350-46-9

$$$$

  CDK

 12 12  0  0  0  0  0  0  0  0999 V2000
    5.7548   -2.6598    0.0000 C   0  0  0  0  0  0  0  0  0  0  0  0
    5.0916   -3.8135    0.0000 F   0  0  0  0  0  0  0  0  0  0  0  0
    6.4250   -1.5130    0.0000 F   0  0  0  0  0  0  0  0  0  0  0  0
    6.9086   -3.3299    0.0000 F   0  0  0  0  0  0  0  0  0  0  0  0
    4.6080   -1.9966    0.0000 C   0  0  0  0  0  0  0  0  0  0  0  0
    3.4543   -2.6598    0.0000 C   0  0  0  0  0  0  0  0  0  0  0  0
    4.6080   -0.6701    0.0000 C   0  0  0  0  0  0  0  0  0  0  0  0
    2.3006   -1.9966    0.0000 C   0  0  0  0  0  0  0  0  0  0  0  0
    3.4543   -0.0000    0.0000 C   0  0  0  0  0  0  0  0  0  0  0  0
    1.1537   -2.6598    0.0000 C   0  0  0  0  0  0  0  0  0  0  0  0
    2.3006   -0.6701    0.0000 C   0  0  0  0  0  0  0  0  0  0  0  0
    0.0000   -3.3299    0.0000 N   0  0  0  0  0  0  0  0  0  0  0  0
  1  2  1  0  0  0  0 
  1  3  1  0  0  0  0 
  1  4  1  0  0  0  0 
  1  5  1  0  0  0  0 
  5  6  2  0  0  0  0 
  5  7  1  0  0  0  0 
  6  8  1  0  0  0  0 
  9  7  2  0  0  0  0 
  8 10  1  0  0  0  0 
  8 11  2  0  0  0  0 
 11  9  1  0  0  0  0 
 10 12  3  0  0  0  0 
M  END
> <Name>
alpha,alpha,alpha-Trifluoro-m-toluonitrile

> <Source>
DSSTox2DMolFile

> <Tox>
3.555

> <CAS>
368-77-4

$$$$

  CDK

  8  8  0  0  0  0  0  0  0  0999 V2000
    0.0000   -1.1545    0.0000 N   0  0  0  0  0  0  0  0  0  0  0  0
    1.3300   -1.1545    0.0000 C   0  0  0  0  0  0  0  0  0  0  0  0
    1.9950   -0.0000    0.0000 C   0  0  0  0  0  0  0  0  0  0  0  0
    1.9950   -2.3036    0.0000 C   0  0  0  0  0  0  0  0  0  0  0  0
    3.3250   -0.0000    0.0000 C   0  0  0  0  0  0  0  0  0  0  0  0
    3.3250   -2.3036    0.0000 C   0  0  0  0  0  0  0  0  0  0  0  0
    3.9900   -1.1545    0.0000 C   0  0  0  0  0  0  0  0  0  0  0  0
    5.3201   -1.1545    0.0000 F   0  0  0  0  0  0  0  0  0  0  0  0
  1  2  1  0  0  0  0 
  2  3  2  0  0  0  0 
  2  4  1  0  0  0  0 
  3  5  1  0  0  0  0 
  6  4  2  0  0  0  0 
  5  7  2  0  0  0  0 
  7  6  1  0  0  0  0 
  7  8  1  0  0  0  0 
M  END
> <Name>
Aniline, p-fluoro- (8CI)

> <Source>
DSSTox2DMolFile

> <Tox>
3.818

> <CAS>
371-40-4

$$$$

  CDK

  9  8  0  0  0  0  0  0  0  0999 V2000
   -0.1143    0.6399    0.0013 C   0  0  0  0  0  0  0  0  0  0  0  0
    1.2371   -0.1676    0.0003 C   0  0  0  0  0  0  0  0  0  0  0  0
   -0.2177    1.8422    0.0003 O   0  0  0  0  0  0  0  0  0  0  0  0
   -1.1683   -0.2039    0.0007 O   0  0  0  0  0  0  0  0  0  0  0  0
    2.3300    0.6197    0.0246 F   0  0  0  0  0  0  0  0  0  0  0  0
    1.3832   -0.9514   -1.0868 F   0  0  0  0  0  0  0  0  0  0  0  0
    1.3645   -0.9909    1.0602 F   0  0  0  0  0  0  0  0  0  0  0  0
   -2.4876    0.3609    0.0006 C   0  0  0  0  0  0  0  0  0  0  0  0
   -3.4480   -0.8106   -0.0004 C   0  0  0  0  0  0  0  0  0  0  0  0
  1  2  1  0  0  0  0 
  1  3  2  0  0  0  0 
  1  4  1  0  0  0  0 
  2  5  1  0  0  0  0 
  2  6  1  0  0  0  0 
  2  7  1  0  0  0  0 
  4  8  1  0  0  0  0 
  8  9  1  0  0  0  0 
M  END
> <Name>
Acetic acid, trifluoro-, ethyl ester

> <Source>
DougDB3DMolFile

> <Tox>
1.153

> <CAS>
383-63-1

$$$$

  CDK

 11 11  0  0  0  0  0  0  0  0999 V2000
    1.6397   -0.1639    0.0000 C   0  0  0  0  0  0  0  0  0  0  0  0
    0.1645   -0.0300    0.0000 C   0  0  0  0  0  0  0  0  0  0  0  0
    2.3079   -1.1831    0.0000 O   0  0  0  0  0  0  0  0  0  0  0  0
    2.3533    0.9868    0.0000 O   0  0  0  0  0  0  0  0  0  0  0  0
   -0.6503   -1.1815    0.0000 C   0  0  0  0  0  0  0  0  0  0  0  0
   -0.4901    1.2183    0.0000 C   0  0  0  0  0  0  0  0  0  0  0  0
   -2.0494   -1.0921    0.0000 C   0  0  0  0  0  0  0  0  0  0  0  0
   -0.0989   -2.4007    0.0000 F   0  0  0  0  0  0  0  0  0  0  0  0
   -1.8886    1.3140    0.0000 C   0  0  0  0  0  0  0  0  0  0  0  0
    0.2142    2.3568    0.0000 F   0  0  0  0  0  0  0  0  0  0  0  0
   -2.6560    0.1567    0.0000 C   0  0  0  0  0  0  0  0  0  0  0  0
  1  2  1  0  0  0  0 
  1  3  2  0  0  0  0 
  1  4  1  0  0  0  0 
  2  5  1  0  0  0  0 
  2  6  2  0  0  0  0 
  5  7  2  0  0  0  0 
  5  8  1  0  0  0  0 
  9  6  1  0  0  0  0 
  6 10  1  0  0  0  0 
  7 11  1  0  0  0  0 
 11  9  2  0  0  0  0 
M  END
> <Name>
Benzoic acid, 2,6-difluoro-

> <Source>
DougDB3DMolFile

> <Tox>
3.360

> <CAS>
385-00-2

$$$$

  CDK

 10 10  0  0  0  0  0  0  0  0999 V2000
    2.6578   -2.3041    0.0000 C   0  0  0  0  0  0  0  0  0  0  0  0
    3.9891   -2.3041    0.0000 C   0  0  0  0  0  0  0  0  0  0  0  0
    1.9969   -3.4584    0.0000 C   0  0  0  0  0  0  0  0  0  0  0  0
    1.9969   -1.1544    0.0000 C   0  0  0  0  0  0  0  0  0  0  0  0
    4.6547   -3.4584    0.0000 O   0  0  0  0  0  0  0  0  0  0  0  0
    2.6578   -4.6082    0.0000 Cl  0  0  0  0  0  0  0  0  0  0  0  0
    0.6656   -3.4584    0.0000 C   0  0  0  0  0  0  0  0  0  0  0  0
    0.6656   -1.1544    0.0000 C   0  0  0  0  0  0  0  0  0  0  0  0
    2.6578   -0.0000    0.0000 F   0  0  0  0  0  0  0  0  0  0  0  0
    0.0000   -2.3041    0.0000 C   0  0  0  0  0  0  0  0  0  0  0  0
  1  2  1  0  0  0  0 
  1  3  2  0  0  0  0 
  1  4  1  0  0  0  0 
  2  5  2  0  0  0  0 
  3  6  1  0  0  0  0 
  3  7  1  0  0  0  0 
  8  4  2  0  0  0  0 
  4  9  1  0  0  0  0 
  7 10  2  0  0  0  0 
 10  8  1  0  0  0  0 
M  END
> <Name>
Benzaldehyde, 2-chloro-6-fluoro-

> <Source>
DSSTox2DMolFile

> <Tox>
4.227

> <CAS>
387-45-1

$$$$

  CDK

 12 12  0  0  0  0  0  0  0  0999 V2000
    4.6085   -0.0000    0.0000 N   0  0  0  0  0  0  0  0  0  0  0  0
    3.4563   -0.6682    0.0000 C   0  0  0  0  0  0  0  0  0  0  0  0
    3.4563   -1.9989    0.0000 C   0  0  0  0  0  0  0  0  0  0  0  0
    2.3042   -0.0000    0.0000 C   0  0  0  0  0  0  0  0  0  0  0  0
    4.6085   -2.6614    0.0000 C   0  0  0  0  0  0  0  0  0  0  0  0
    2.3042   -2.6614    0.0000 C   0  0  0  0  0  0  0  0  0  0  0  0
    1.1521   -0.6682    0.0000 C   0  0  0  0  0  0  0  0  0  0  0  0
    5.7606   -3.3239    0.0000 F   0  0  0  0  0  0  0  0  0  0  0  0
    3.9460   -3.8135    0.0000 F   0  0  0  0  0  0  0  0  0  0  0  0
    5.2709   -1.5093    0.0000 F   0  0  0  0  0  0  0  0  0  0  0  0
    1.1521   -1.9989    0.0000 C   0  0  0  0  0  0  0  0  0  0  0  0
    0.0000   -2.6614    0.0000 F   0  0  0  0  0  0  0  0  0  0  0  0
  1  2  1  0  0  0  0 
  2  3  2  0  0  0  0 
  2  4  1  0  0  0  0 
  3  5  1  0  0  0  0 
  3  6  1  0  0  0  0 
  7  4  2  0  0  0  0 
  5  8  1  0  0  0  0 
  5  9  1  0  0  0  0 
  5 10  1  0  0  0  0 
  6 11  2  0  0  0  0 
 11  7  1  0  0  0  0 
 11 12  1  0  0  0  0 
M  END
> <Name>
alpha,alpha,alpha,4-Tetrafluoro-o-toluidine

> <Source>
DSSTox2DMolFile

> <Tox>
3.782

> <CAS>
393-39-5

$$$$

  CDK

 12 12  0  0  0  0  0  0  0  0999 V2000
    1.9939   -4.6098    0.0000 C   0  0  0  0  0  0  0  0  0  0  0  0
    0.6646   -4.6098    0.0000 C   0  0  0  0  0  0  0  0  0  0  0  0
    2.6585   -3.4560    0.0000 C   0  0  0  0  0  0  0  0  0  0  0  0
    0.0000   -3.4560    0.0000 C   0  0  0  0  0  0  0  0  0  0  0  0
    1.9939   -2.3023    0.0000 C   0  0  0  0  0  0  0  0  0  0  0  0
    3.9877   -3.4560    0.0000 C   0  0  0  0  0  0  0  0  0  0  0  0
    0.6646   -2.3023    0.0000 C   0  0  0  0  0  0  0  0  0  0  0  0
    2.6585   -1.1538    0.0000 C   0  0  0  0  0  0  0  0  0  0  0  0
    3.9877   -4.7853    0.0000 F   0  0  0  0  0  0  0  0  0  0  0  0
    3.9877   -2.1268    0.0000 F   0  0  0  0  0  0  0  0  0  0  0  0
    5.3170   -3.4560    0.0000 F   0  0  0  0  0  0  0  0  0  0  0  0
    3.3231   -0.0000    0.0000 N   0  0  0  0  0  0  0  0  0  0  0  0
  1  2  2  0  0  0  0 
  1  3  1  0  0  0  0 
  2  4  1  0  0  0  0 
  5  3  2  0  0  0  0 
  3  6  1  0  0  0  0 
  4  7  2  0  0  0  0 
  7  5  1  0  0  0  0 
  5  8  1  0  0  0  0 
  6  9  1  0  0  0  0 
  6 10  1  0  0  0  0 
  6 11  1  0  0  0  0 
  8 12  3  0  0  0  0 
M  END
> <Name>
alpha,alpha,alpha-Trifluoro-2-toluonitrile

> <Source>
DSSTox2DMolFile

> <Tox>
3.608

> <CAS>
447-60-9

$$$$

  CDK

 12 12  0  0  0  0  0  0  0  0999 V2000
    1.9957   -1.1509    0.0000 C   0  0  0  0  0  0  0  0  0  0  0  0
    1.3305   -0.0000    0.0000 C   0  0  0  0  0  0  0  0  0  0  0  0
    3.3262   -1.1509    0.0000 C   0  0  0  0  0  0  0  0  0  0  0  0
    1.3305   -2.3018    0.0000 C   0  0  0  0  0  0  0  0  0  0  0  0
    0.0000   -0.0000    0.0000 O   0  0  0  0  0  0  0  0  0  0  0  0
    3.9915   -2.3018    0.0000 C   0  0  0  0  0  0  0  0  0  0  0  0
    1.9957   -3.4526    0.0000 C   0  0  0  0  0  0  0  0  0  0  0  0
    5.3220   -2.3018    0.0000 C   0  0  0  0  0  0  0  0  0  0  0  0
    3.3262   -3.4526    0.0000 C   0  0  0  0  0  0  0  0  0  0  0  0
    5.3220   -0.9713    0.0000 F   0  0  0  0  0  0  0  0  0  0  0  0
    6.6525   -2.3018    0.0000 F   0  0  0  0  0  0  0  0  0  0  0  0
    5.3220   -3.6322    0.0000 F   0  0  0  0  0  0  0  0  0  0  0  0
  1  2  1  0  0  0  0 
  1  3  2  0  0  0  0 
  1  4  1  0  0  0  0 
  2  5  2  0  0  0  0 
  3  6  1  0  0  0  0 
  7  4  2  0  0  0  0 
  6  8  1  0  0  0  0 
  6  9  2  0  0  0  0 
  9  7  1  0  0  0  0 
  8 10  1  0  0  0  0 
  8 11  1  0  0  0  0 
  8 12  1  0  0  0  0 
M  END
> <Name>
alpha,alpha,alpha-Trifluoro-3-tolualdehyde

> <Source>
DSSTox2DMolFile

> <Tox>
5.277

> <CAS>
454-89-7

$$$$

  CDK

 11 12  0  0  0  0  0  0  0  0999 V2000
    3.3702   -1.9461    0.0000 C   0  0  0  0  0  0  0  0  0  0  0  0
    3.3702   -3.2741    0.0000 C   0  0  0  0  0  0  0  0  0  0  0  0
    2.2635   -1.3113    0.0000 C   0  0  0  0  0  0  0  0  0  0  0  0
    2.2635   -3.9214    0.0000 C   0  0  0  0  0  0  0  0  0  0  0  0
    1.1568   -1.9461    0.0000 C   0  0  0  0  0  0  0  0  0  0  0  0
    2.8941   -2.4514    0.0000 C   0  0  0  0  0  0  0  0  0  0  0  0
    2.2635   -0.0000    0.0000 C   0  0  0  0  0  0  0  0  0  0  0  0
    1.1568   -3.2741    0.0000 C   0  0  0  0  0  0  0  0  0  0  0  0
    0.0000   -1.3113    0.0000 O   0  0  0  0  0  0  0  0  0  0  0  0
    4.1762   -2.1006    0.0000 C   0  0  0  0  0  0  0  0  0  0  0  0
    4.0509   -3.0987    0.0000 C   0  0  0  0  0  0  0  0  0  0  0  0
  1  2  1  0  0  0  0 
  1  3  1  0  0  0  0 
  2  4  1  0  0  0  0 
  3  5  1  0  0  0  0 
  3  6  1  6  0  0  0 
  3  7  1  0  0  0  0 
  4  8  1  0  0  0  0 
  4  6  1  6  0  0  0 
  5  8  1  0  0  0  0 
  5  9  1  1  0  0  0 
  6 10  1  0  0  0  0 
  6 11  1  0  0  0  0 
M  END
> <Name>
Bicyclo(2.2.1)heptan-2-ol, 1,7,7-trimethyl-, (1S,2R,4S)-

> <Source>
DSSTox2DMolFile

> <Tox>
3.387

> <CAS>
464-45-9

$$$$

  CDK

 11 12  0  0  0  0  0  0  0  0999 V2000
    3.3920   -0.6518    0.0000 C   0  0  0  0  0  0  0  0  0  0  0  0
    3.3920   -1.9555    0.0000 C   0  0  0  0  0  0  0  0  0  0  0  0
    2.2533   -0.0000    0.0000 C   0  0  0  0  0  0  0  0  0  0  0  0
    2.2533   -2.6074    0.0000 C   0  0  0  0  0  0  0  0  0  0  0  0
    1.1347   -0.6518    0.0000 C   0  0  0  0  0  0  0  0  0  0  0  0
    2.9051   -1.1347    0.0000 C   0  0  0  0  0  0  0  0  0  0  0  0
    1.1347   -1.9555    0.0000 C   0  0  0  0  0  0  0  0  0  0  0  0
    2.2533   -3.9111    0.0000 C   0  0  0  0  0  0  0  0  0  0  0  0
    4.0237   -0.4668    0.0000 C   0  0  0  0  0  0  0  0  0  0  0  0
    4.0237   -1.8067    0.0000 C   0  0  0  0  0  0  0  0  0  0  0  0
    0.0000   -2.6074    0.0000 O   0  0  0  0  0  0  0  0  0  0  0  0
  1  2  1  0  0  0  0 
  1  3  1  0  0  0  0 
  2  4  1  0  0  0  0 
  3  5  1  0  0  0  0 
  3  6  1  6  0  0  0 
  4  7  1  0  0  0  0 
  4  6  1  6  0  0  0 
  4  8  1  0  0  0  0 
  5  7  1  0  0  0  0 
  6  9  1  0  0  0  0 
  6 10  1  0  0  0  0 
  7 11  2  0  0  0  0 
M  END
> <Name>
Bicyclo(2.2.1)heptan-2-one, 1,7,7-trimethyl-, (1theta)-

> <Source>
DSSTox2DMolFile

> <Tox>
3.141

> <CAS>
464-49-3

$$$$

  CDK

 11 12  0  0  0  0  0  0  0  0999 V2000
    1.5616   -0.0000    0.0000 C   0  0  0  0  0  0  0  0  0  0  0  0
    1.9893   -0.4818    0.0000 C   0  0  0  0  0  0  0  0  0  0  0  0
    1.5616   -1.6114    0.0000 C   0  0  0  0  0  0  0  0  0  0  0  0
    1.9893   -2.2842    0.0000 C   0  0  0  0  0  0  0  0  0  0  0  0
    0.1703   -2.4213    0.0000 O   0  0  0  0  0  0  0  0  0  0  0  0
    3.1730   -2.1472    0.0000 C   0  0  0  0  0  0  0  0  0  0  0  0
    0.4818   -1.0300    0.0000 C   0  0  0  0  0  0  0  0  0  0  0  0
    1.0134   -2.9529    0.0000 C   0  0  0  0  0  0  0  0  0  0  0  0
    3.3308   -2.9529    0.0000 C   0  0  0  0  0  0  0  0  0  0  0  0
    0.0000   -4.0825    0.0000 C   0  0  0  0  0  0  0  0  0  0  0  0
    1.6322   -4.1531    0.0000 C   0  0  0  0  0  0  0  0  0  0  0  0
  1  2  1  0  0  0  0 
  1  3  1  0  0  0  0 
  4  2  1  0  0  0  0 
  5  3  1  0  0  0  0 
  3  6  1  0  0  0  0 
  3  7  1  0  0  0  0 
  8  4  1  0  0  0  0 
  4  9  1  0  0  0  0 
  5  8  1  0  0  0  0 
  6  9  1  0  0  0  0 
  8 10  1  0  0  0  0 
  8 11  1  0  0  0  0 
M  END
> <Name>
2-Oxabicyclo(2.2.2)octane, 1,3,3-trimethyl-

> <Source>
DSSTox2DMolFile

> <Tox>
3.180

> <CAS>
470-82-6

$$$$

  CDK

 22 24  0  0  0  0  0  0  0  0999 V2000
    3.1957   -4.1193    0.0000 C   0  0  0  0  0  0  0  0  0  0  0  0
    2.0042   -3.4358    0.0000 C   0  0  0  0  0  0  0  0  0  0  0  0
    4.3871   -3.4358    0.0000 C   0  0  0  0  0  0  0  0  0  0  0  0
    3.1957   -5.4955    0.0000 C   0  0  0  0  0  0  0  0  0  0  0  0
    3.1957   -2.9371    0.0000 C   0  0  0  0  0  0  0  0  0  0  0  0
    0.8128   -4.1193    0.0000 C   0  0  0  0  0  0  0  0  0  0  0  0
    5.5786   -4.1193    0.0000 C   0  0  0  0  0  0  0  0  0  0  0  0
    4.3871   -2.0596    0.0000 C   0  0  0  0  0  0  0  0  0  0  0  0
    2.0042   -6.1882    0.0000 C   0  0  0  0  0  0  0  0  0  0  0  0
    4.3871   -6.1882    0.0000 C   0  0  0  0  0  0  0  0  0  0  0  0
    0.8128   -5.4955    0.0000 C   0  0  0  0  0  0  0  0  0  0  0  0
    5.5786   -5.4955    0.0000 C   0  0  0  0  0  0  0  0  0  0  0  0
    6.7701   -3.4358    0.0000 C   0  0  0  0  0  0  0  0  0  0  0  0
    5.5786   -1.3669    0.0000 C   0  0  0  0  0  0  0  0  0  0  0  0
    2.6692   -7.2780    0.0000 C   0  0  0  0  0  0  0  0  0  0  0  0
    0.9328   -6.8162    0.0000 C   0  0  0  0  0  0  0  0  0  0  0  0
    6.7701   -2.0596    0.0000 C   0  0  0  0  0  0  0  0  0  0  0  0
    1.1730   -7.9615    0.0000 O   0  0  0  0  0  0  0  0  0  0  0  0
    0.0000   -6.4006    0.0000 O   0  0  0  0  0  0  0  0  0  0  0  0
    8.0723   -1.3762    0.0000 C   0  0  0  0  0  0  0  0  0  0  0  0
    9.2361   -2.1151    0.0000 C   0  0  0  0  0  0  0  0  0  0  0  0
    8.1278   -0.0000    0.0000 C   0  0  0  0  0  0  0  0  0  0  0  0
  1  2  1  0  0  0  0 
  1  3  1  0  0  0  0 
  1  4  1  0  0  0  0 
  1  5  1  1  0  0  0 
  2  6  1  0  0  0  0 
  7  3  1  0  0  0  0 
  3  8  1  0  0  0  0 
  4  9  1  0  0  0  0 
  4 10  1  0  0  0  0 
  6 11  1  0  0  0  0 
  7 12  1  0  0  0  0 
  7 13  2  0  0  0  0 
 14  8  1  0  0  0  0 
  9 11  1  0  0  0  0 
  9 15  1  1  0  0  0 
  9 16  1  6  0  0  0 
 12 10  1  0  0  0  0 
 17 13  1  0  0  0  0 
 17 14  1  0  0  0  0 
 16 18  2  0  0  0  0 
 16 19  1  0  0  0  0 
 17 20  2  0  0  0  0 
 20 21  1  0  0  0  0 
 20 22  1  0  0  0  0 
M  END
> <Name>
1-Phenanthrenecarboxylic acid, 1,2,3,4,4a,4b,5,6,7,9,10,10a-dodecahydro-1,4a-dimethyl-7-(1-methylethylidene)-, (1theta-(1alpha,4abeta,4balpha,10aalpha))-

> <Source>
DSSTox2DMolFile

> <Tox>
5.307

> <CAS>
471-77-2

$$$$

  CDK

 15 17  0  0  0  0  0  0  0  0999 V2000
    0.4464   -1.2841   -0.8314 C   0  0  0  0  0  0  0  0  0  0  0  0
    1.4773   -2.1435   -0.0589 C   0  0  0  0  0  0  0  0  0  0  0  0
   -0.5702   -0.9832    0.3057 C   0  0  0  0  0  0  0  0  0  0  0  0
    1.1015    0.0570   -1.0596 C   0  0  0  0  0  0  0  0  0  0  0  0
    1.4794   -1.5149    1.3531 C   0  0  0  0  0  0  0  0  0  0  0  0
    0.5073   -0.3154    1.2150 C   0  0  0  0  0  0  0  0  0  0  0  0
   -1.8802   -0.2617   -0.0384 C   0  0  0  0  0  0  0  0  0  0  0  0
    1.1817    0.7538    0.2940 C   0  0  0  0  0  0  0  0  0  0  0  0
    1.5333    0.5178   -2.2264 C   0  0  0  0  0  0  0  0  0  0  0  0
   -1.7057    1.1636   -0.5779 C   0  0  0  0  0  0  0  0  0  0  0  0
   -2.6168   -1.0845   -1.1031 C   0  0  0  0  0  0  0  0  0  0  0  0
   -2.7563   -0.2208    1.2198 C   0  0  0  0  0  0  0  0  0  0  0  0
    0.4728    2.1163    0.2983 C   0  0  0  0  0  0  0  0  0  0  0  0
    2.6415    1.0241    0.6659 C   0  0  0  0  0  0  0  0  0  0  0  0
   -1.0379    2.0998    0.4122 C   0  0  0  0  0  0  0  0  0  0  0  0
  1  2  1  0  0  0  0 
  1  3  1  0  0  0  0 
  1  4  1  0  0  0  0 
  2  5  1  0  0  0  0 
  6  3  1  0  0  0  0 
  7  3  1  0  0  0  0 
  8  4  1  0  0  0  0 
  4  9  2  0  0  0  0 
  5  6  1  0  0  0  0 
  6  8  1  0  0  0  0 
 10  7  1  0  0  0  0 
  7 11  1  0  0  0  0 
  7 12  1  0  0  0  0 
  8 13  1  0  0  0  0 
  8 14  1  0  0  0  0 
 15 10  1  0  0  0  0 
 13 15  1  0  0  0  0 
M  END
> <Name>
1,4-Methanoazulene, decahydro-4,8,8-trimethyl-9-methylene-, (1S-(1alpha,3abeta,4alpha,8abeta))- (9CI)

> <Source>
DougDB3DMolFile

> <Tox>
4.302

> <CAS>
475-20-7

$$$$

  CDK

  9 10  0  0  0  0  0  0  0  0999 V2000
    0.1843    0.7016    0.0000 C   0  0  0  0  0  0  0  0  0  0  0  0
    0.1844   -0.7018    0.0001 C   0  0  0  0  0  0  0  0  0  0  0  0
    1.5756    1.2398    0.0002 C   0  0  0  0  0  0  0  0  0  0  0  0
   -1.0062    1.4090   -0.0001 C   0  0  0  0  0  0  0  0  0  0  0  0
    1.5759   -1.2397   -0.0002 C   0  0  0  0  0  0  0  0  0  0  0  0
   -1.0063   -1.4090    0.0001 C   0  0  0  0  0  0  0  0  0  0  0  0
    2.4858    0.0001    0.0001 C   0  0  0  0  0  0  0  0  0  0  0  0
   -2.2058    0.6952   -0.0001 C   0  0  0  0  0  0  0  0  0  0  0  0
   -2.2058   -0.6951    0.0001 C   0  0  0  0  0  0  0  0  0  0  0  0
  1  2  1  0  0  0  0 
  1  3  1  0  0  0  0 
  1  4  2  0  0  0  0 
  2  5  1  0  0  0  0 
  2  6  2  0  0  0  0 
  3  7  1  0  0  0  0 
  4  8  1  0  0  0  0 
  5  7  1  0  0  0  0 
  6  9  1  0  0  0  0 
  8  9  2  0  0  0  0 
M  END
> <Name>
1H-Indene, 2,3-dihydro-

> <Source>
DougDB3DMolFile

> <Tox>
3.926

> <CAS>
496-11-7

$$$$

  CDK

  9 10  0  0  0  0  0  0  0  0999 V2000
    0.7831   -2.4059    0.0000 C   0  0  0  0  0  0  0  0  0  0  0  0
    0.0000   -1.3269    0.0000 C   0  0  0  0  0  0  0  0  0  0  0  0
    2.0448   -1.9926    0.0000 C   0  0  0  0  0  0  0  0  0  0  0  0
    0.7831   -0.2523    0.0000 O   0  0  0  0  0  0  0  0  0  0  0  0
    2.0448   -0.6613    0.0000 C   0  0  0  0  0  0  0  0  0  0  0  0
    3.1977   -2.6582    0.0000 C   0  0  0  0  0  0  0  0  0  0  0  0
    3.1977   -0.0000    0.0000 C   0  0  0  0  0  0  0  0  0  0  0  0
    4.3506   -1.9926    0.0000 C   0  0  0  0  0  0  0  0  0  0  0  0
    4.3506   -0.6613    0.0000 C   0  0  0  0  0  0  0  0  0  0  0  0
  1  2  1  0  0  0  0 
  1  3  1  0  0  0  0 
  2  4  1  0  0  0  0 
  5  3  1  0  0  0  0 
  6  3  2  0  0  0  0 
  4  5  1  0  0  0  0 
  5  7  2  0  0  0  0 
  8  6  1  0  0  0  0 
  7  9  1  0  0  0  0 
  9  8  2  0  0  0  0 
M  END
> <Name>
Benzofuran, 2,3-dihydro-

> <Source>
DSSTox2DMolFile

> <Tox>
3.167

> <CAS>
496-16-2

$$$$

  CDK

  8  9  0  0  0  0  0  0  0  0999 V2000
    3.3426   -2.5905    0.0000 O   0  0  0  0  0  0  0  0  0  0  0  0
    2.2529   -1.9654    0.0000 C   0  0  0  0  0  0  0  0  0  0  0  0
    1.1398   -2.6173    0.0000 C   0  0  0  0  0  0  0  0  0  0  0  0
    2.2529   -0.6518    0.0000 C   0  0  0  0  0  0  0  0  0  0  0  0
    1.7415   -1.3036    0.0000 C   0  0  0  0  0  0  0  0  0  0  0  0
    0.0000   -1.9654    0.0000 C   0  0  0  0  0  0  0  0  0  0  0  0
    1.1398   -0.0000    0.0000 C   0  0  0  0  0  0  0  0  0  0  0  0
    0.0000   -0.6518    0.0000 C   0  0  0  0  0  0  0  0  0  0  0  0
  2  1  1  1  0  0  0 
  2  3  1  0  0  0  0 
  2  4  1  0  0  0  0 
  3  5  1  1  0  0  0 
  3  6  1  0  0  0  0 
  4  7  1  0  0  0  0 
  7  5  1  1  0  0  0 
  6  8  1  0  0  0  0 
  7  8  1  0  0  0  0 
M  END
> <Name>
2-Norbornanol, exo- (8CI)

> <Source>
DSSTox2DMolFile

> <Tox>
2.692

> <CAS>
497-37-0

$$$$

  CDK

  7  8  0  0  0  0  0  0  0  0999 V2000
    1.9230   -0.0000    0.0000 C   0  0  0  0  0  0  0  0  0  0  0  0
    2.3769   -1.3976    0.0000 C   0  0  0  0  0  0  0  0  0  0  0  0
    0.4540   -0.0000    0.0000 C   0  0  0  0  0  0  0  0  0  0  0  0
    1.1885   -2.2605    0.0000 C   0  0  0  0  0  0  0  0  0  0  0  0
    1.3335   -1.7494    0.0000 C   0  0  0  0  0  0  0  0  0  0  0  0
    0.0000   -1.3976    0.0000 C   0  0  0  0  0  0  0  0  0  0  0  0
    0.4540   -1.1005    0.0000 C   0  0  0  0  0  0  0  0  0  0  0  0
  1  2  1  0  0  0  0 
  1  3  1  0  0  0  0 
  2  4  1  0  0  0  0 
  2  5  1  0  0  0  0 
  6  3  1  0  0  0  0 
  3  7  1  0  0  0  0 
  4  6  2  0  0  0  0 
  7  5  1  0  0  0  0 
M  END
> <Name>
Bicyclo(2.2.1)hept-2-ene

> <Source>
DSSTox2DMolFile

> <Tox>
3.974

> <CAS>
498-66-8

$$$$

  CDK

  8  8  0  0  0  0  0  0  0  0999 V2000
    3.9877   -2.3033    0.0000 N   0  0  0  0  0  0  0  0  0  0  0  0
    2.6569   -2.3033    0.0000 C   0  0  0  0  0  0  0  0  0  0  0  0
    4.6531   -1.1540    0.0000 C   0  0  0  0  0  0  0  0  0  0  0  0
    1.9962   -1.1540    0.0000 C   0  0  0  0  0  0  0  0  0  0  0  0
    3.9877   -0.0000    0.0000 C   0  0  0  0  0  0  0  0  0  0  0  0
    0.6654   -1.1540    0.0000 C   0  0  0  0  0  0  0  0  0  0  0  0
    2.6569   -0.0000    0.0000 C   0  0  0  0  0  0  0  0  0  0  0  0
    0.0000   -0.0000    0.0000 O   0  0  0  0  0  0  0  0  0  0  0  0
  1  2  2  0  0  0  0 
  1  3  1  0  0  0  0 
  2  4  1  0  0  0  0 
  5  3  2  0  0  0  0 
  4  6  1  0  0  0  0 
  4  7  2  0  0  0  0 
  7  5  1  0  0  0  0 
  6  8  2  0  0  0  0 
M  END
> <Name>
3-Pyridinecarboxaldehyde

> <Source>
DSSTox2DMolFile

> <Tox>
3.815

> <CAS>
500-22-1

$$$$

  CDK

 10  9  0  0  0  0  0  0  0  0999 V2000
    8.0686   -0.0000    0.0000 C   0  0  0  0  0  0  0  0  0  0  0  0
    6.9148   -0.6697    0.0000 C   0  0  0  0  0  0  0  0  0  0  0  0
    6.9148   -2.0010    0.0000 C   0  0  0  0  0  0  0  0  0  0  0  0
    5.7610   -2.6626    0.0000 C   0  0  0  0  0  0  0  0  0  0  0  0
    4.6072   -2.0010    0.0000 C   0  0  0  0  0  0  0  0  0  0  0  0
    4.6072   -0.6697    0.0000 O   0  0  0  0  0  0  0  0  0  0  0  0
    3.4614   -2.6626    0.0000 C   0  0  0  0  0  0  0  0  0  0  0  0
    2.3076   -2.0010    0.0000 C   0  0  0  0  0  0  0  0  0  0  0  0
    1.1538   -2.6626    0.0000 C   0  0  0  0  0  0  0  0  0  0  0  0
    0.0000   -2.0010    0.0000 C   0  0  0  0  0  0  0  0  0  0  0  0
  1  2  1  0  0  0  0 
  2  3  1  0  0  0  0 
  3  4  1  0  0  0  0 
  4  5  1  0  0  0  0 
  5  6  2  0  0  0  0 
  5  7  1  0  0  0  0 
  7  8  1  0  0  0  0 
  8  9  1  0  0  0  0 
  9 10  1  0  0  0  0 
M  END
> <Name>
5-Nonanone

> <Source>
DSSTox2DMolFile

> <Tox>
3.662

> <CAS>
502-56-7

$$$$

  CDK

  4  3  0  0  0  0  0  0  0  0999 V2000
    1.1440   -0.1198    0.0002 C   0  0  0  0  0  0  0  0  0  0  0  0
    1.6607   -1.1867   -0.0001 O   0  0  0  0  0  0  0  0  0  0  0  0
    1.6457    1.2693    0.0000 C   0  0  0  0  0  0  0  0  0  0  0  0
   -0.8184    0.0027    0.0000 Br  0  0  0  0  0  0  0  0  0  0  0  0
  1  2  2  0  0  0  0 
  1  3  1  0  0  0  0 
  1  4  1  0  0  0  0 
M  END
> <Name>
Acetyl bromide

> <Source>
DougDB3DMolFile

> <Tox>
3.481

> <CAS>
506-96-7

$$$$

  CDK

  6  5  0  0  0  0  0  0  0  0999 V2000
    3.3250   -1.1509    0.0000 C   0  0  0  0  0  0  0  0  0  0  0  0
    1.9943   -1.1509    0.0000 C   0  0  0  0  0  0  0  0  0  0  0  0
    1.3307   -0.0000    0.0000 C   0  0  0  0  0  0  0  0  0  0  0  0
    1.3307   -2.3053    0.0000 C   0  0  0  0  0  0  0  0  0  0  0  0
    1.9943   -3.4563    0.0000 C   0  0  0  0  0  0  0  0  0  0  0  0
    0.0000   -2.3053    0.0000 C   0  0  0  0  0  0  0  0  0  0  0  0
  1  2  2  0  0  0  0 
  2  3  1  0  0  0  0 
  2  4  1  0  0  0  0 
  4  5  1  0  0  0  0 
  4  6  2  0  0  0  0 
M  END
> <Name>
1,3-Butadiene, 2,3-dimethyl-

> <Source>
DSSTox2DMolFile

> <Tox>
4.075

> <CAS>
513-81-5

$$$$

  CDK

 17 19  0  0  0  0  0  0  0  0999 V2000
    1.9959   -3.4561    0.0000 C   0  0  0  0  0  0  0  0  0  0  0  0
    0.6653   -3.4561    0.0000 C   0  0  0  0  0  0  0  0  0  0  0  0
    2.6612   -2.3070    0.0000 C   0  0  0  0  0  0  0  0  0  0  0  0
    0.0000   -2.3070    0.0000 C   0  0  0  0  0  0  0  0  0  0  0  0
    1.9959   -1.1492    0.0000 C   0  0  0  0  0  0  0  0  0  0  0  0
    3.9918   -2.3070    0.0000 C   0  0  0  0  0  0  0  0  0  0  0  0
    0.6653   -1.1492    0.0000 C   0  0  0  0  0  0  0  0  0  0  0  0
    4.6485   -1.1492    0.0000 C   0  0  0  0  0  0  0  0  0  0  0  0
    4.6485   -3.4561    0.0000 O   0  0  0  0  0  0  0  0  0  0  0  0
    5.9791   -1.1492    0.0000 C   0  0  0  0  0  0  0  0  0  0  0  0
    5.9791   -3.4561    0.0000 C   0  0  0  0  0  0  0  0  0  0  0  0
    6.6444   -0.0000    0.0000 O   0  0  0  0  0  0  0  0  0  0  0  0
    6.6444   -2.3070    0.0000 C   0  0  0  0  0  0  0  0  0  0  0  0
    6.6444   -4.6053    0.0000 C   0  0  0  0  0  0  0  0  0  0  0  0
    7.9750   -2.3070    0.0000 C   0  0  0  0  0  0  0  0  0  0  0  0
    7.9750   -4.6053    0.0000 C   0  0  0  0  0  0  0  0  0  0  0  0
    8.6404   -3.4561    0.0000 C   0  0  0  0  0  0  0  0  0  0  0  0
  1  2  2  0  0  0  0 
  1  3  1  0  0  0  0 
  2  4  1  0  0  0  0 
  5  3  2  0  0  0  0 
  3  6  1  0  0  0  0 
  4  7  2  0  0  0  0 
  7  5  1  0  0  0  0 
  6  8  2  0  0  0  0 
  6  9  1  0  0  0  0 
  8 10  1  0  0  0  0 
 11  9  1  0  0  0  0 
 10 12  2  0  0  0  0 
 10 13  1  0  0  0  0 
 13 11  1  0  0  0  0 
 14 11  2  0  0  0  0 
 13 15  2  0  0  0  0 
 16 14  1  0  0  0  0 
 15 17  1  0  0  0  0 
 17 16  2  0  0  0  0 
M  END
> <Name>
Flavone (VAN) (8CI)

> <Source>
DSSTox2DMolFile

> <Tox>
4.803

> <CAS>
525-82-6

$$$$

  CDK

 14 14  0  0  0  0  0  0  0  0999 V2000
    3.9918   -5.7573    0.0000 O   0  0  0  0  0  0  0  0  0  0  0  0
    3.3275   -4.6083    0.0000 C   0  0  0  0  0  0  0  0  0  0  0  0
    1.9929   -4.6083    0.0000 C   0  0  0  0  0  0  0  0  0  0  0  0
    3.9918   -3.4532    0.0000 C   0  0  0  0  0  0  0  0  0  0  0  0
    1.3286   -5.7573    0.0000 C   0  0  0  0  0  0  0  0  0  0  0  0
    1.3286   -3.4532    0.0000 C   0  0  0  0  0  0  0  0  0  0  0  0
    3.3275   -2.3041    0.0000 C   0  0  0  0  0  0  0  0  0  0  0  0
    5.3205   -3.4532    0.0000 N   0  0  0  0  0  0  0  0  0  0  0  0
    1.9929   -2.3041    0.0000 C   0  0  0  0  0  0  0  0  0  0  0  0
    5.9848   -2.3041    0.0000 O   0  0  0  0  0  0  0  0  0  0  0  0
    5.9848   -4.6083    0.0000 O   0  0  0  0  0  0  0  0  0  0  0  0
    1.3286   -1.1491    0.0000 N   0  0  0  0  0  0  0  0  0  0  0  0
    1.9929   -0.0000    0.0000 O   0  0  0  0  0  0  0  0  0  0  0  0
    0.0000   -1.1491    0.0000 O   0  0  0  0  0  0  0  0  0  0  0  0
  1  2  1  0  0  0  0 
  2  3  2  0  0  0  0 
  2  4  1  0  0  0  0 
  3  5  1  0  0  0  0 
  3  6  1  0  0  0  0 
  7  4  2  0  0  0  0 
  4  8  1  0  0  0  0 
  6  9  2  0  0  0  0 
  9  7  1  0  0  0  0 
  8 10  1  0  0  0  0 
  8 11  2  0  0  0  0 
  9 12  1  0  0  0  0 
 12 13  1  0  0  0  0 
 12 14  2  0  0  0  0 
M  CHG  1   8   1
M  CHG  1  10  -1
M  CHG  1  12   1
M  CHG  1  13  -1
M  END
> <Name>
Phenol, 2-methyl-4,6-dinitro-

> <Source>
DSSTox2DMolFile

> <Tox>
5.013

> <CAS>
534-52-1

$$$$

  CDK

 11 11  0  0  0  0  0  0  0  0999 V2000
    1.1535   -2.6619    0.0000 C   0  0  0  0  0  0  0  0  0  0  0  0
    0.0000   -2.0004    0.0000 C   0  0  0  0  0  0  0  0  0  0  0  0
    2.3070   -2.0004    0.0000 C   0  0  0  0  0  0  0  0  0  0  0  0
    0.0000   -0.6695    0.0000 C   0  0  0  0  0  0  0  0  0  0  0  0
    2.3070   -0.6695    0.0000 C   0  0  0  0  0  0  0  0  0  0  0  0
    3.4605   -2.6619    0.0000 C   0  0  0  0  0  0  0  0  0  0  0  0
    1.1535   -0.0000    0.0000 C   0  0  0  0  0  0  0  0  0  0  0  0
    4.6059   -2.0004    0.0000 C   0  0  0  0  0  0  0  0  0  0  0  0
    5.7594   -2.6619    0.0000 C   0  0  0  0  0  0  0  0  0  0  0  0
    6.9128   -2.0004    0.0000 C   0  0  0  0  0  0  0  0  0  0  0  0
    8.0663   -2.6619    0.0000 C   0  0  0  0  0  0  0  0  0  0  0  0
  1  2  2  0  0  0  0 
  1  3  1  0  0  0  0 
  2  4  1  0  0  0  0 
  5  3  2  0  0  0  0 
  3  6  1  0  0  0  0 
  4  7  2  0  0  0  0 
  7  5  1  0  0  0  0 
  6  8  1  0  0  0  0 
  8  9  1  0  0  0  0 
  9 10  1  0  0  0  0 
 10 11  1  0  0  0  0 
M  END
> <Name>
Benzene, pentyl-

> <Source>
DSSTox2DMolFile

> <Tox>
4.938

> <CAS>
538-68-1

$$$$

  CDK

  8  7  0  0  0  0  0  0  0  0999 V2000
    1.1522   -0.0000    0.0000 O   0  0  0  0  0  0  0  0  0  0  0  0
    1.1522   -1.3319    0.0000 C   0  0  0  0  0  0  0  0  0  0  0  0
    2.3044   -1.9956    0.0000 O   0  0  0  0  0  0  0  0  0  0  0  0
    0.0000   -1.9956    0.0000 C   0  0  0  0  0  0  0  0  0  0  0  0
    3.4566   -1.3319    0.0000 C   0  0  0  0  0  0  0  0  0  0  0  0
    2.7929   -0.1797    0.0000 C   0  0  0  0  0  0  0  0  0  0  0  0
    4.6088   -0.6683    0.0000 C   0  0  0  0  0  0  0  0  0  0  0  0
    4.1203   -2.4842    0.0000 C   0  0  0  0  0  0  0  0  0  0  0  0
  1  2  2  0  0  0  0 
  2  3  1  0  0  0  0 
  2  4  1  0  0  0  0 
  3  5  1  0  0  0  0 
  5  6  1  0  0  0  0 
  5  7  1  0  0  0  0 
  5  8  1  0  0  0  0 
M  END
> <Name>
Acetic acid, 1,1-dimethylethyl ester

> <Source>
DSSTox2DMolFile

> <Tox>
2.551

> <CAS>
540-88-5

$$$$

  CDK

  8  8  0  0  0  0  0  0  0  0999 V2000
    4.6080   -2.6588    0.0000 Cl  0  0  0  0  0  0  0  0  0  0  0  0
    3.4560   -1.9953    0.0000 C   0  0  0  0  0  0  0  0  0  0  0  0
    2.3040   -2.6588    0.0000 C   0  0  0  0  0  0  0  0  0  0  0  0
    3.4560   -0.6635    0.0000 C   0  0  0  0  0  0  0  0  0  0  0  0
    1.1520   -1.9953    0.0000 C   0  0  0  0  0  0  0  0  0  0  0  0
    2.3040   -0.0000    0.0000 C   0  0  0  0  0  0  0  0  0  0  0  0
    0.0000   -2.6588    0.0000 Cl  0  0  0  0  0  0  0  0  0  0  0  0
    1.1520   -0.6635    0.0000 C   0  0  0  0  0  0  0  0  0  0  0  0
  1  2  1  0  0  0  0 
  2  3  2  0  0  0  0 
  2  4  1  0  0  0  0 
  3  5  1  0  0  0  0 
  6  4  2  0  0  0  0 
  5  7  1  0  0  0  0 
  5  8  2  0  0  0  0 
  8  6  1  0  0  0  0 
M  END
> <Name>
Benzene, 1,3-dichloro-

> <Source>
DSSTox2DMolFile

> <Tox>
4.269

> <CAS>
541-73-1

$$$$

  CDK

 12 12  0  0  0  0  0  0  0  0999 V2000
    2.6606   -1.1574    0.0000 C   0  0  0  0  0  0  0  0  0  0  0  0
    1.9955   -0.0000    0.0000 O   0  0  0  0  0  0  0  0  0  0  0  0
    3.9909   -1.1574    0.0000 C   0  0  0  0  0  0  0  0  0  0  0  0
    1.9955   -2.3081    0.0000 C   0  0  0  0  0  0  0  0  0  0  0  0
    4.6561   -2.3081    0.0000 C   0  0  0  0  0  0  0  0  0  0  0  0
    2.6606   -3.4588    0.0000 C   0  0  0  0  0  0  0  0  0  0  0  0
    0.6652   -2.3081    0.0000 C   0  0  0  0  0  0  0  0  0  0  0  0
    5.9864   -2.3081    0.0000 O   0  0  0  0  0  0  0  0  0  0  0  0
    3.9909   -3.4588    0.0000 C   0  0  0  0  0  0  0  0  0  0  0  0
    0.0000   -3.4588    0.0000 O   0  0  0  0  0  0  0  0  0  0  0  0
    0.0000   -1.1574    0.0000 C   0  0  0  0  0  0  0  0  0  0  0  0
    6.6515   -3.4588    0.0000 C   0  0  0  0  0  0  0  0  0  0  0  0
  1  2  1  0  0  0  0 
  1  3  2  0  0  0  0 
  1  4  1  0  0  0  0 
  3  5  1  0  0  0  0 
  6  4  2  0  0  0  0 
  4  7  1  0  0  0  0 
  5  8  1  0  0  0  0 
  5  9  2  0  0  0  0 
  9  6  1  0  0  0  0 
  7 10  2  0  0  0  0 
  7 11  1  0  0  0  0 
  8 12  1  0  0  0  0 
M  END
> <Name>
Ethanone, 1-(2-hydroxy-4-methoxyphenyl)- (9CI)

> <Source>
DSSTox2DMolFile

> <Tox>
3.379

> <CAS>
552-41-0

$$$$

  CDK

 11 11  0  0  0  0  0  0  0  0999 V2000
    1.9971   -2.3043    0.0000 C   0  0  0  0  0  0  0  0  0  0  0  0
    2.6581   -1.1545    0.0000 C   0  0  0  0  0  0  0  0  0  0  0  0
    2.6581   -3.4588    0.0000 C   0  0  0  0  0  0  0  0  0  0  0  0
    0.6657   -2.3043    0.0000 C   0  0  0  0  0  0  0  0  0  0  0  0
    1.9971   -0.0000    0.0000 O   0  0  0  0  0  0  0  0  0  0  0  0
    3.9895   -3.4588    0.0000 N   0  0  0  0  0  0  0  0  0  0  0  0
    1.9971   -4.6086    0.0000 C   0  0  0  0  0  0  0  0  0  0  0  0
    0.0000   -3.4588    0.0000 C   0  0  0  0  0  0  0  0  0  0  0  0
    4.6552   -2.3043    0.0000 O   0  0  0  0  0  0  0  0  0  0  0  0
    4.6552   -4.6086    0.0000 O   0  0  0  0  0  0  0  0  0  0  0  0
    0.6657   -4.6086    0.0000 C   0  0  0  0  0  0  0  0  0  0  0  0
  1  2  1  0  0  0  0 
  1  3  2  0  0  0  0 
  1  4  1  0  0  0  0 
  2  5  2  0  0  0  0 
  3  6  1  0  0  0  0 
  3  7  1  0  0  0  0 
  8  4  2  0  0  0  0 
  6  9  1  0  0  0  0 
  6 10  2  0  0  0  0 
  7 11  2  0  0  0  0 
 11  8  1  0  0  0  0 
M  CHG  1   6   1
M  CHG  1   9  -1
M  END
> <Name>
Benzaldehyde, 2-nitro-

> <Source>
DSSTox2DMolFile

> <Tox>
4.021

> <CAS>
552-89-6

$$$$

  CDK

 11 11  0  0  0  0  0  0  0  0999 V2000
    6.6538   -0.0000    0.0000 O   0  0  0  0  0  0  0  0  0  0  0  0
    5.9884   -1.1511    0.0000 C   0  0  0  0  0  0  0  0  0  0  0  0
    4.6576   -1.1511    0.0000 C   0  0  0  0  0  0  0  0  0  0  0  0
    3.9923   -2.3022    0.0000 C   0  0  0  0  0  0  0  0  0  0  0  0
    3.9923   -0.0000    0.0000 C   0  0  0  0  0  0  0  0  0  0  0  0
    2.6615   -2.3022    0.0000 C   0  0  0  0  0  0  0  0  0  0  0  0
    2.6615   -0.0000    0.0000 C   0  0  0  0  0  0  0  0  0  0  0  0
    1.9961   -1.1511    0.0000 C   0  0  0  0  0  0  0  0  0  0  0  0
    0.6654   -1.1511    0.0000 N   0  0  0  0  0  0  0  0  0  0  0  0
    0.0000   -2.3022    0.0000 O   0  0  0  0  0  0  0  0  0  0  0  0
    0.0000   -0.0000    0.0000 O   0  0  0  0  0  0  0  0  0  0  0  0
  1  2  2  0  0  0  0 
  2  3  1  0  0  0  0 
  3  4  2  0  0  0  0 
  3  5  1  0  0  0  0 
  4  6  1  0  0  0  0 
  7  5  2  0  0  0  0 
  6  8  2  0  0  0  0 
  8  7  1  0  0  0  0 
  8  9  1  0  0  0  0 
  9 10  2  0  0  0  0 
  9 11  1  0  0  0  0 
M  CHG  1   9   1
M  CHG  1  11  -1
M  END
> <Name>
Benzaldehyde, 4-nitro-

> <Source>
DSSTox2DMolFile

> <Tox>
4.175

> <CAS>
555-16-8

$$$$

  CDK

 19 18  0  0  0  0  0  0  0  0999 V2000
    7.2276   -2.3060    0.0000 P   0  0  0  0  0  0  0  0  0  0  0  0
    6.0852   -1.6761    0.0000 S   0  0  0  0  0  0  0  0  0  0  0  0
    7.9001   -1.1743    0.0000 S   0  0  0  0  0  0  0  0  0  0  0  0
    6.5443   -3.4910    0.0000 O   0  0  0  0  0  0  0  0  0  0  0  0
    8.3592   -2.9892    0.0000 O   0  0  0  0  0  0  0  0  0  0  0  0
    4.9429   -2.3060    0.0000 C   0  0  0  0  0  0  0  0  0  0  0  0
    7.2276   -4.5799    0.0000 C   0  0  0  0  0  0  0  0  0  0  0  0
    9.5229   -2.3060    0.0000 C   0  0  0  0  0  0  0  0  0  0  0  0
    3.7793   -1.6761    0.0000 S   0  0  0  0  0  0  0  0  0  0  0  0
    6.5443   -5.7650    0.0000 C   0  0  0  0  0  0  0  0  0  0  0  0
   10.6759   -2.9892    0.0000 C   0  0  0  0  0  0  0  0  0  0  0  0
    2.6263   -2.3060    0.0000 P   0  0  0  0  0  0  0  0  0  0  0  0
    3.3095   -3.4910    0.0000 S   0  0  0  0  0  0  0  0  0  0  0  0
    1.4733   -2.9892    0.0000 O   0  0  0  0  0  0  0  0  0  0  0  0
    1.9964   -1.1530    0.0000 O   0  0  0  0  0  0  0  0  0  0  0  0
    1.4733   -4.3024    0.0000 C   0  0  0  0  0  0  0  0  0  0  0  0
    0.6406   -1.1530    0.0000 C   0  0  0  0  0  0  0  0  0  0  0  0
    0.3203   -4.9750    0.0000 C   0  0  0  0  0  0  0  0  0  0  0  0
    0.0000   -0.0000    0.0000 C   0  0  0  0  0  0  0  0  0  0  0  0
  1  2  1  0  0  0  0 
  1  3  2  0  0  0  0 
  1  4  1  0  0  0  0 
  1  5  1  0  0  0  0 
  2  6  1  0  0  0  0 
  4  7  1  0  0  0  0 
  5  8  1  0  0  0  0 
  9  6  1  0  0  0  0 
  7 10  1  0  0  0  0 
  8 11  1  0  0  0  0 
 12  9  1  0  0  0  0 
 12 13  2  0  0  0  0 
 12 14  1  0  0  0  0 
 12 15  1  0  0  0  0 
 14 16  1  0  0  0  0 
 15 17  1  0  0  0  0 
 16 18  1  0  0  0  0 
 17 19  1  0  0  0  0 
M  END
> <Name>
Phosphorodithioic acid, S,S'-methylene O,O,O',O'-tetraethyl ester

> <Source>
DSSTox2DMolFile

> <Tox>
5.728

> <CAS>
563-12-2

$$$$

  CDK

  6  5  0  0  0  0  0  0  0  0999 V2000
    3.3250   -1.1509    0.0000 C   0  0  0  0  0  0  0  0  0  0  0  0
    1.9943   -1.1509    0.0000 C   0  0  0  0  0  0  0  0  0  0  0  0
    1.3307   -0.0000    0.0000 O   0  0  0  0  0  0  0  0  0  0  0  0
    1.3307   -2.3053    0.0000 C   0  0  0  0  0  0  0  0  0  0  0  0
    1.9943   -3.4563    0.0000 C   0  0  0  0  0  0  0  0  0  0  0  0
    0.0000   -2.3053    0.0000 C   0  0  0  0  0  0  0  0  0  0  0  0
  1  2  1  0  0  0  0 
  2  3  2  0  0  0  0 
  2  4  1  0  0  0  0 
  4  5  1  0  0  0  0 
  4  6  1  0  0  0  0 
M  END
> <Name>
2-Butanone, 3-methyl-

> <Source>
DSSTox2DMolFile

> <Tox>
1.999

> <CAS>
563-80-4

$$$$

  CDK

 11 11  0  0  0  0  0  0  0  0999 V2000
    4.6557   -0.0000    0.0000 C   0  0  0  0  0  0  0  0  0  0  0  0
    3.9900   -1.1500    0.0000 C   0  0  0  0  0  0  0  0  0  0  0  0
    4.6557   -2.3046    0.0000 C   0  0  0  0  0  0  0  0  0  0  0  0
    2.6584   -1.1500    0.0000 C   0  0  0  0  0  0  0  0  0  0  0  0
    3.9900   -3.4545    0.0000 C   0  0  0  0  0  0  0  0  0  0  0  0
    1.9973   -2.3046    0.0000 C   0  0  0  0  0  0  0  0  0  0  0  0
    1.9973   -0.0000    0.0000 N   0  0  0  0  0  0  0  0  0  0  0  0
    2.6584   -3.4545    0.0000 C   0  0  0  0  0  0  0  0  0  0  0  0
    0.6658   -2.3046    0.0000 N   0  0  0  0  0  0  0  0  0  0  0  0
    0.0000   -3.4545    0.0000 O   0  0  0  0  0  0  0  0  0  0  0  0
    0.0000   -1.1500    0.0000 O   0  0  0  0  0  0  0  0  0  0  0  0
  1  2  1  0  0  0  0 
  2  3  2  0  0  0  0 
  2  4  1  0  0  0  0 
  3  5  1  0  0  0  0 
  6  4  2  0  0  0  0 
  4  7  1  0  0  0  0 
  5  8  2  0  0  0  0 
  8  6  1  0  0  0  0 
  6  9  1  0  0  0  0 
  9 10  1  0  0  0  0 
  9 11  2  0  0  0  0 
M  CHG  1   9   1
M  CHG  1  10  -1
M  END
> <Name>
Benzenamine, 2-methyl-6-nitro- (9CI)

> <Source>
DSSTox2DMolFile

> <Tox>
3.797

> <CAS>
570-24-1

$$$$

  CDK

 13 13  0  0  0  0  0  0  0  0999 V2000
    3.4548   -3.9869    0.0000 O   0  0  0  0  0  0  0  0  0  0  0  0
    3.4548   -2.6602    0.0000 C   0  0  0  0  0  0  0  0  0  0  0  0
    2.3009   -1.9900    0.0000 C   0  0  0  0  0  0  0  0  0  0  0  0
    4.6088   -1.9900    0.0000 C   0  0  0  0  0  0  0  0  0  0  0  0
    1.1539   -2.6602    0.0000 N   0  0  0  0  0  0  0  0  0  0  0  0
    2.3009   -0.6633    0.0000 C   0  0  0  0  0  0  0  0  0  0  0  0
    4.6088   -0.6633    0.0000 C   0  0  0  0  0  0  0  0  0  0  0  0
    5.7558   -2.6602    0.0000 N   0  0  0  0  0  0  0  0  0  0  0  0
    0.0000   -1.9900    0.0000 O   0  0  0  0  0  0  0  0  0  0  0  0
    1.1539   -3.9869    0.0000 O   0  0  0  0  0  0  0  0  0  0  0  0
    3.4548   -0.0000    0.0000 C   0  0  0  0  0  0  0  0  0  0  0  0
    6.9097   -1.9900    0.0000 O   0  0  0  0  0  0  0  0  0  0  0  0
    5.7558   -3.9869    0.0000 O   0  0  0  0  0  0  0  0  0  0  0  0
  1  2  1  0  0  0  0 
  2  3  2  0  0  0  0 
  2  4  1  0  0  0  0 
  3  5  1  0  0  0  0 
  3  6  1  0  0  0  0 
  7  4  2  0  0  0  0 
  4  8  1  0  0  0  0 
  5  9  1  0  0  0  0 
  5 10  2  0  0  0  0 
  6 11  2  0  0  0  0 
 11  7  1  0  0  0  0 
  8 12  1  0  0  0  0 
  8 13  2  0  0  0  0 
M  CHG  1   5   1
M  CHG  1   8   1
M  CHG  1   9  -1
M  CHG  1  12  -1
M  END
> <Name>
Phenol, 2,6-dinitro-

> <Source>
DSSTox2DMolFile

> <Tox>
3.666

> <CAS>
573-56-8

$$$$

  CDK

 11 11  0  0  0  0  0  0  0  0999 V2000
    5.3194   -2.3037    0.0000 N   0  0  0  0  0  0  0  0  0  0  0  0
    5.9835   -1.1488    0.0000 O   0  0  0  0  0  0  0  0  0  0  0  0
    5.9835   -3.4525    0.0000 O   0  0  0  0  0  0  0  0  0  0  0  0
    3.9910   -2.3037    0.0000 C   0  0  0  0  0  0  0  0  0  0  0  0
    3.3269   -3.4525    0.0000 C   0  0  0  0  0  0  0  0  0  0  0  0
    3.3269   -1.1488    0.0000 C   0  0  0  0  0  0  0  0  0  0  0  0
    1.9925   -3.4525    0.0000 C   0  0  0  0  0  0  0  0  0  0  0  0
    1.9925   -1.1488    0.0000 C   0  0  0  0  0  0  0  0  0  0  0  0
    3.9910   -0.0000    0.0000 N   0  0  0  0  0  0  0  0  0  0  0  0
    1.3283   -2.3037    0.0000 C   0  0  0  0  0  0  0  0  0  0  0  0
    0.0000   -2.3037    0.0000 C   0  0  0  0  0  0  0  0  0  0  0  0
  1  2  2  0  0  0  0 
  1  3  1  0  0  0  0 
  1  4  1  0  0  0  0 
  4  5  2  0  0  0  0 
  4  6  1  0  0  0  0 
  5  7  1  0  0  0  0 
  8  6  2  0  0  0  0 
  6  9  1  0  0  0  0 
  7 10  2  0  0  0  0 
 10  8  1  0  0  0  0 
 10 11  1  0  0  0  0 
M  CHG  1   1   1
M  CHG  1   3  -1
M  END
> <Name>
5-Methyl-o-nitroaniline

> <Source>
DSSTox2DMolFile

> <Tox>
3.787

> <CAS>
578-46-1

$$$$

  CDK

  8  8  0  0  0  0  0  0  0  0999 V2000
    0.0000   -2.3027    0.0000 Br  0  0  0  0  0  0  0  0  0  0  0  0
    1.3289   -2.3027    0.0000 C   0  0  0  0  0  0  0  0  0  0  0  0
    1.9954   -1.1533    0.0000 C   0  0  0  0  0  0  0  0  0  0  0  0
    1.9954   -3.4560    0.0000 C   0  0  0  0  0  0  0  0  0  0  0  0
    1.3289   -0.0000    0.0000 Br  0  0  0  0  0  0  0  0  0  0  0  0
    3.3243   -1.1533    0.0000 C   0  0  0  0  0  0  0  0  0  0  0  0
    3.3243   -3.4560    0.0000 C   0  0  0  0  0  0  0  0  0  0  0  0
    3.9907   -2.3027    0.0000 C   0  0  0  0  0  0  0  0  0  0  0  0
  1  2  1  0  0  0  0 
  2  3  2  0  0  0  0 
  2  4  1  0  0  0  0 
  3  5  1  0  0  0  0 
  3  6  1  0  0  0  0 
  7  4  2  0  0  0  0 
  6  8  2  0  0  0  0 
  8  7  1  0  0  0  0 
M  END
> <Name>
Benzene, o-dibromo- (8CI)

> <Source>
DSSTox2DMolFile

> <Tox>
4.762

> <CAS>
583-53-9

$$$$

  CDK

 13 13  0  0  0  0  0  0  0  0999 V2000
    6.9062   -2.6612    0.0000 N   0  0  0  0  0  0  0  0  0  0  0  0
    8.0572   -1.9890    0.0000 C   0  0  0  0  0  0  0  0  0  0  0  0
    5.7459   -1.9890    0.0000 C   0  0  0  0  0  0  0  0  0  0  0  0
    9.2083   -1.3352    0.0000 O   0  0  0  0  0  0  0  0  0  0  0  0
    4.5949   -2.6612    0.0000 C   0  0  0  0  0  0  0  0  0  0  0  0
    5.7459   -0.6630    0.0000 C   0  0  0  0  0  0  0  0  0  0  0  0
    3.4439   -1.9890    0.0000 C   0  0  0  0  0  0  0  0  0  0  0  0
    4.5949   -0.0000    0.0000 C   0  0  0  0  0  0  0  0  0  0  0  0
    6.9062   -0.0000    0.0000 C   0  0  0  0  0  0  0  0  0  0  0  0
    2.2929   -2.6612    0.0000 N   0  0  0  0  0  0  0  0  0  0  0  0
    3.4439   -0.6630    0.0000 C   0  0  0  0  0  0  0  0  0  0  0  0
    1.1326   -1.9890    0.0000 C   0  0  0  0  0  0  0  0  0  0  0  0
    0.0000   -1.3352    0.0000 O   0  0  0  0  0  0  0  0  0  0  0  0
  1  2  2  0  0  0  0 
  1  3  1  0  0  0  0 
  2  4  2  0  0  0  0 
  3  5  2  0  0  0  0 
  3  6  1  0  0  0  0 
  5  7  1  0  0  0  0 
  8  6  2  0  0  0  0 
  6  9  1  0  0  0  0 
  7 10  1  0  0  0  0 
  7 11  2  0  0  0  0 
 11  8  1  0  0  0  0 
 10 12  2  0  0  0  0 
 12 13  2  0  0  0  0 
M  END
> <Name>
Isocyanic acid, 4-methyl-m-phenylene ester (8CI)

> <Source>
DSSTox2DMolFile

> <Tox>
3.025

> <CAS>
584-84-9

$$$$

  CDK

 10 10  0  0  0  0  0  0  0  0999 V2000
    1.1393   -1.3371    0.0000 C   0  0  0  0  0  0  0  0  0  0  0  0
    2.2965   -1.9907    0.0000 C   0  0  0  0  0  0  0  0  0  0  0  0
    0.0000   -1.9907    0.0000 C   0  0  0  0  0  0  0  0  0  0  0  0
    1.1393   -0.0000    0.0000 C   0  0  0  0  0  0  0  0  0  0  0  0
    2.2965   -3.3278    0.0000 C   0  0  0  0  0  0  0  0  0  0  0  0
    0.0000   -3.3278    0.0000 C   0  0  0  0  0  0  0  0  0  0  0  0
    1.1393   -4.0054    0.0000 C   0  0  0  0  0  0  0  0  0  0  0  0
    1.1393   -5.3365    0.0000 C   0  0  0  0  0  0  0  0  0  0  0  0
    2.2965   -5.9961    0.0000 C   0  0  0  0  0  0  0  0  0  0  0  0
    0.0000   -5.9961    0.0000 C   0  0  0  0  0  0  0  0  0  0  0  0
  1  2  2  0  0  0  0 
  1  3  1  0  0  0  0 
  1  4  1  0  0  0  0 
  2  5  1  0  0  0  0 
  6  3  1  0  0  0  0 
  5  7  1  0  0  0  0 
  7  6  1  0  0  0  0 
  7  8  2  0  0  0  0 
  8  9  1  0  0  0  0 
  8 10  1  0  0  0  0 
M  END
> <Name>
Cyclohexene, 3-methyl-6-(1-methylethylidene)- (9CI)

> <Source>
DSSTox2DMolFile

> <Tox>
5.052

> <CAS>
586-62-9

$$$$

  CDK

 10 10  0  0  0  0  0  0  0  0999 V2000
    0.0000   -1.9973    0.0000 C   0  0  0  0  0  0  0  0  0  0  0  0
    1.1542   -2.6608    0.0000 C   0  0  0  0  0  0  0  0  0  0  0  0
    2.3014   -1.9973    0.0000 C   0  0  0  0  0  0  0  0  0  0  0  0
    3.4556   -2.6608    0.0000 N   0  0  0  0  0  0  0  0  0  0  0  0
    4.6098   -1.9973    0.0000 C   0  0  0  0  0  0  0  0  0  0  0  0
    4.6098   -0.6635    0.0000 C   0  0  0  0  0  0  0  0  0  0  0  0
    5.7570   -2.6608    0.0000 C   0  0  0  0  0  0  0  0  0  0  0  0
    5.7570   -0.0000    0.0000 C   0  0  0  0  0  0  0  0  0  0  0  0
    6.9112   -1.9973    0.0000 C   0  0  0  0  0  0  0  0  0  0  0  0
    6.9112   -0.6635    0.0000 C   0  0  0  0  0  0  0  0  0  0  0  0
  1  2  2  0  0  0  0 
  2  3  1  0  0  0  0 
  3  4  1  0  0  0  0 
  4  5  1  0  0  0  0 
  5  6  2  0  0  0  0 
  5  7  1  0  0  0  0 
  6  8  1  0  0  0  0 
  9  7  2  0  0  0  0 
  8 10  2  0  0  0  0 
 10  9  1  0  0  0  0 
M  END
> <Name>
Benzenamine, N-2-propenyl-

> <Source>
DSSTox2DMolFile

> <Tox>
3.569

> <CAS>
589-09-3

$$$$

  CDK

  6  5  0  0  0  0  0  0  0  0999 V2000
    3.4563   -0.0000    0.0000 C   0  0  0  0  0  0  0  0  0  0  0  0
    3.4563   -1.3318    0.0000 C   0  0  0  0  0  0  0  0  0  0  0  0
    4.6084   -1.9954    0.0000 C   0  0  0  0  0  0  0  0  0  0  0  0
    2.3042   -1.9954    0.0000 C   0  0  0  0  0  0  0  0  0  0  0  0
    1.1521   -1.3318    0.0000 C   0  0  0  0  0  0  0  0  0  0  0  0
    0.0000   -1.9954    0.0000 O   0  0  0  0  0  0  0  0  0  0  0  0
  1  2  1  0  0  0  0 
  2  3  1  0  0  0  0 
  2  4  1  0  0  0  0 
  4  5  1  0  0  0  0 
  5  6  2  0  0  0  0 
M  END
> <Name>
Butyraldehyde, 3-methyl-

> <Source>
DSSTox2DMolFile

> <Tox>
4.423

> <CAS>
590-86-3

$$$$

  CDK

  7  6  0  0  0  0  0  0  0  0999 V2000
    0.0000   -1.3314    0.0000 C   0  0  0  0  0  0  0  0  0  0  0  0
    1.1527   -1.9942    0.0000 C   0  0  0  0  0  0  0  0  0  0  0  0
    2.3055   -1.3314    0.0000 C   0  0  0  0  0  0  0  0  0  0  0  0
    3.4582   -1.9942    0.0000 C   0  0  0  0  0  0  0  0  0  0  0  0
    4.6110   -1.3314    0.0000 C   0  0  0  0  0  0  0  0  0  0  0  0
    4.6110   -0.0000    0.0000 O   0  0  0  0  0  0  0  0  0  0  0  0
    5.7637   -1.9942    0.0000 C   0  0  0  0  0  0  0  0  0  0  0  0
  1  2  1  0  0  0  0 
  2  3  1  0  0  0  0 
  3  4  1  0  0  0  0 
  4  5  1  0  0  0  0 
  5  6  2  0  0  0  0 
  5  7  1  0  0  0  0 
M  END
> <Name>
2-Hexanone

> <Source>
DSSTox2DMolFile

> <Tox>
2.369

> <CAS>
591-78-6

$$$$

  CDK

  6  5  0  0  0  0  0  0  0  0999 V2000
    0.0000   -0.6630    0.0000 C   0  0  0  0  0  0  0  0  0  0  0  0
    1.1530   -0.0000    0.0000 C   0  0  0  0  0  0  0  0  0  0  0  0
    2.3060   -0.6630    0.0000 C   0  0  0  0  0  0  0  0  0  0  0  0
    3.4590   -0.0000    0.0000 C   0  0  0  0  0  0  0  0  0  0  0  0
    4.6119   -0.6630    0.0000 C   0  0  0  0  0  0  0  0  0  0  0  0
    5.7649   -0.0000    0.0000 C   0  0  0  0  0  0  0  0  0  0  0  0
  1  2  1  0  0  0  0 
  2  3  2  0  0  0  0 
  3  4  1  0  0  0  0 
  4  5  2  0  0  0  0 
  5  6  1  0  0  0  0 
M  END
> <Name>
Hexa-2,4-diene

> <Source>
DSSTox2DMolFile

> <Tox>
3.614

> <CAS>
592-46-1

$$$$

  CDK

 14 13  0  0  0  0  0  0  0  0999 V2000
    0.0000   -1.9918    0.0000 C   0  0  0  0  0  0  0  0  0  0  0  0
    1.1480   -1.3278    0.0000 C   0  0  0  0  0  0  0  0  0  0  0  0
    2.3099   -1.9918    0.0000 C   0  0  0  0  0  0  0  0  0  0  0  0
    3.4579   -1.3278    0.0000 C   0  0  0  0  0  0  0  0  0  0  0  0
    4.6059   -1.9918    0.0000 C   0  0  0  0  0  0  0  0  0  0  0  0
    5.7678   -1.3278    0.0000 C   0  0  0  0  0  0  0  0  0  0  0  0
    6.9158   -1.9918    0.0000 C   0  0  0  0  0  0  0  0  0  0  0  0
    8.0639   -1.3278    0.0000 C   0  0  0  0  0  0  0  0  0  0  0  0
    9.2257   -1.9918    0.0000 C   0  0  0  0  0  0  0  0  0  0  0  0
   10.3738   -1.3278    0.0000 C   0  0  0  0  0  0  0  0  0  0  0  0
   11.5218   -1.9918    0.0000 C   0  0  0  0  0  0  0  0  0  0  0  0
   12.6836   -1.3278    0.0000 C   0  0  0  0  0  0  0  0  0  0  0  0
   12.6836   -0.0000    0.0000 O   0  0  0  0  0  0  0  0  0  0  0  0
   13.8317   -1.9918    0.0000 C   0  0  0  0  0  0  0  0  0  0  0  0
  1  2  1  0  0  0  0 
  2  3  1  0  0  0  0 
  3  4  1  0  0  0  0 
  4  5  1  0  0  0  0 
  5  6  1  0  0  0  0 
  6  7  1  0  0  0  0 
  7  8  1  0  0  0  0 
  8  9  1  0  0  0  0 
  9 10  1  0  0  0  0 
 10 11  1  0  0  0  0 
 11 12  1  0  0  0  0 
 12 13  2  0  0  0  0 
 12 14  1  0  0  0  0 
M  END
> <Name>
2-Tridecanone

> <Source>
DSSTox2DMolFile

> <Tox>
5.741

> <CAS>
593-08-8

$$$$

  CDK

  8  7  0  0  0  0  0  0  0  0999 V2000
    0.0000   -3.4549    0.0000 C   0  0  0  0  0  0  0  0  0  0  0  0
    1.3313   -3.4549    0.0000 C   0  0  0  0  0  0  0  0  0  0  0  0
    1.9946   -4.6066    0.0000 C   0  0  0  0  0  0  0  0  0  0  0  0
    1.9946   -2.3033    0.0000 C   0  0  0  0  0  0  0  0  0  0  0  0
    3.3259   -2.3033    0.0000 O   0  0  0  0  0  0  0  0  0  0  0  0
    1.3313   -1.1516    0.0000 C   0  0  0  0  0  0  0  0  0  0  0  0
    0.0000   -1.1516    0.0000 C   0  0  0  0  0  0  0  0  0  0  0  0
    1.9946   -0.0000    0.0000 C   0  0  0  0  0  0  0  0  0  0  0  0
  1  2  1  0  0  0  0 
  2  3  1  0  0  0  0 
  2  4  1  0  0  0  0 
  4  5  1  0  0  0  0 
  4  6  1  0  0  0  0 
  6  7  1  0  0  0  0 
  6  8  1  0  0  0  0 
M  END
> <Name>
3-Pentanol, 2,4-dimethyl-

> <Source>
DSSTox2DMolFile

> <Tox>
2.853

> <CAS>
600-36-2

$$$$

  CDK

 11 11  0  0  0  0  0  0  0  0999 V2000
    3.9900   -2.3046    0.0000 N   0  0  0  0  0  0  0  0  0  0  0  0
    4.6557   -1.1500    0.0000 O   0  0  0  0  0  0  0  0  0  0  0  0
    4.6557   -3.4545    0.0000 O   0  0  0  0  0  0  0  0  0  0  0  0
    2.6584   -2.3046    0.0000 C   0  0  0  0  0  0  0  0  0  0  0  0
    1.9973   -3.4545    0.0000 C   0  0  0  0  0  0  0  0  0  0  0  0
    1.9973   -1.1500    0.0000 C   0  0  0  0  0  0  0  0  0  0  0  0
    0.6658   -3.4545    0.0000 C   0  0  0  0  0  0  0  0  0  0  0  0
    0.6658   -1.1500    0.0000 C   0  0  0  0  0  0  0  0  0  0  0  0
    2.6584   -0.0000    0.0000 C   0  0  0  0  0  0  0  0  0  0  0  0
    0.0000   -2.3046    0.0000 C   0  0  0  0  0  0  0  0  0  0  0  0
    0.0000   -0.0000    0.0000 N   0  0  0  0  0  0  0  0  0  0  0  0
  1  2  2  0  0  0  0 
  1  3  1  0  0  0  0 
  1  4  1  0  0  0  0 
  4  5  2  0  0  0  0 
  4  6  1  0  0  0  0 
  5  7  1  0  0  0  0 
  8  6  2  0  0  0  0 
  6  9  1  0  0  0  0 
  7 10  2  0  0  0  0 
 10  8  1  0  0  0  0 
  8 11  1  0  0  0  0 
M  CHG  1   1   1
M  CHG  1   3  -1
M  END
> <Name>
Benzenamine, 2-methyl-3-nitro- (9CI)

> <Source>
DSSTox2DMolFile

> <Tox>
3.484

> <CAS>
603-83-8

$$$$

  CDK

 13 13  0  0  0  0  0  0  0  0999 V2000
    3.4548   -3.9869    0.0000 C   0  0  0  0  0  0  0  0  0  0  0  0
    3.4548   -2.6602    0.0000 C   0  0  0  0  0  0  0  0  0  0  0  0
    2.3009   -1.9900    0.0000 C   0  0  0  0  0  0  0  0  0  0  0  0
    4.6088   -1.9900    0.0000 C   0  0  0  0  0  0  0  0  0  0  0  0
    2.3009   -0.6633    0.0000 C   0  0  0  0  0  0  0  0  0  0  0  0
    1.1539   -2.6602    0.0000 N   0  0  0  0  0  0  0  0  0  0  0  0
    4.6088   -0.6633    0.0000 C   0  0  0  0  0  0  0  0  0  0  0  0
    5.7558   -2.6602    0.0000 N   0  0  0  0  0  0  0  0  0  0  0  0
    3.4548   -0.0000    0.0000 C   0  0  0  0  0  0  0  0  0  0  0  0
    1.1539   -3.9869    0.0000 O   0  0  0  0  0  0  0  0  0  0  0  0
    0.0000   -1.9900    0.0000 O   0  0  0  0  0  0  0  0  0  0  0  0
    5.7558   -3.9869    0.0000 O   0  0  0  0  0  0  0  0  0  0  0  0
    6.9097   -1.9900    0.0000 O   0  0  0  0  0  0  0  0  0  0  0  0
  1  2  1  0  0  0  0 
  2  3  2  0  0  0  0 
  2  4  1  0  0  0  0 
  3  5  1  0  0  0  0 
  3  6  1  0  0  0  0 
  7  4  2  0  0  0  0 
  4  8  1  0  0  0  0 
  5  9  2  0  0  0  0 
  6 10  2  0  0  0  0 
  6 11  1  0  0  0  0 
  9  7  1  0  0  0  0 
  8 12  2  0  0  0  0 
  8 13  1  0  0  0  0 
M  CHG  1   6   1
M  CHG  1   8   1
M  CHG  1  11  -1
M  CHG  1  13  -1
M  END
> <Name>
Benzene, 2-methyl-1,3-dinitro-

> <Source>
DSSTox2DMolFile

> <Tox>
3.978

> <CAS>
606-20-2

$$$$

  CDK

 15 16  0  0  0  0  0  0  0  0999 V2000
    2.3004   -5.9838    0.0000 C   0  0  0  0  0  0  0  0  0  0  0  0
    1.1502   -6.6487    0.0000 C   0  0  0  0  0  0  0  0  0  0  0  0
    2.3004   -4.6541    0.0000 C   0  0  0  0  0  0  0  0  0  0  0  0
    0.0000   -5.9838    0.0000 C   0  0  0  0  0  0  0  0  0  0  0  0
    1.1502   -3.9892    0.0000 C   0  0  0  0  0  0  0  0  0  0  0  0
    3.4573   -3.9892    0.0000 N   0  0  0  0  0  0  0  0  0  0  0  0
    0.0000   -4.6541    0.0000 C   0  0  0  0  0  0  0  0  0  0  0  0
    3.4573   -2.6595    0.0000 C   0  0  0  0  0  0  0  0  0  0  0  0
    4.6075   -4.6541    0.0000 C   0  0  0  0  0  0  0  0  0  0  0  0
    2.3004   -1.9946    0.0000 C   0  0  0  0  0  0  0  0  0  0  0  0
    4.6075   -1.9946    0.0000 C   0  0  0  0  0  0  0  0  0  0  0  0
    5.7577   -3.9892    0.0000 O   0  0  0  0  0  0  0  0  0  0  0  0
    2.3004   -0.6649    0.0000 C   0  0  0  0  0  0  0  0  0  0  0  0
    4.6075   -0.6649    0.0000 C   0  0  0  0  0  0  0  0  0  0  0  0
    3.4573   -0.0000    0.0000 C   0  0  0  0  0  0  0  0  0  0  0  0
  1  2  2  0  0  0  0 
  1  3  1  0  0  0  0 
  2  4  1  0  0  0  0 
  5  3  2  0  0  0  0 
  3  6  1  0  0  0  0 
  4  7  2  0  0  0  0 
  7  5  1  0  0  0  0 
  6  8  1  0  0  0  0 
  6  9  1  0  0  0  0 
  8 10  2  0  0  0  0 
  8 11  1  0  0  0  0 
  9 12  2  0  0  0  0 
 10 13  1  0  0  0  0 
 14 11  2  0  0  0  0 
 13 15  2  0  0  0  0 
 15 14  1  0  0  0  0 
M  END
> <Name>
Formamide, N,N-diphenyl-

> <Source>
DSSTox2DMolFile

> <Tox>
3.812

> <CAS>
607-00-1

$$$$

  CDK

 18 18  0  0  0  0  0  0  0  0999 V2000
    0.0000   -4.6108    0.0000 C   0  0  0  0  0  0  0  0  0  0  0  0
    0.6661   -5.7613    0.0000 C   0  0  0  0  0  0  0  0  0  0  0  0
    1.9983   -5.7613    0.0000 O   0  0  0  0  0  0  0  0  0  0  0  0
    2.6644   -4.6108    0.0000 C   0  0  0  0  0  0  0  0  0  0  0  0
    1.9983   -3.4516    0.0000 O   0  0  0  0  0  0  0  0  0  0  0  0
    3.9966   -4.6108    0.0000 C   0  0  0  0  0  0  0  0  0  0  0  0
    4.6541   -5.7613    0.0000 C   0  0  0  0  0  0  0  0  0  0  0  0
    4.6541   -3.4516    0.0000 C   0  0  0  0  0  0  0  0  0  0  0  0
    5.9863   -5.7613    0.0000 C   0  0  0  0  0  0  0  0  0  0  0  0
    5.9863   -3.4516    0.0000 O   0  0  0  0  0  0  0  0  0  0  0  0
    3.9966   -2.3011    0.0000 O   0  0  0  0  0  0  0  0  0  0  0  0
    6.6524   -4.6108    0.0000 C   0  0  0  0  0  0  0  0  0  0  0  0
    6.6524   -6.9119    0.0000 C   0  0  0  0  0  0  0  0  0  0  0  0
    4.6541   -1.1505    0.0000 C   0  0  0  0  0  0  0  0  0  0  0  0
    7.9846   -4.6108    0.0000 C   0  0  0  0  0  0  0  0  0  0  0  0
    7.9846   -6.9119    0.0000 C   0  0  0  0  0  0  0  0  0  0  0  0
    3.9966   -0.0000    0.0000 C   0  0  0  0  0  0  0  0  0  0  0  0
    8.6507   -5.7613    0.0000 C   0  0  0  0  0  0  0  0  0  0  0  0
  1  2  1  0  0  0  0 
  2  3  1  0  0  0  0 
  3  4  1  0  0  0  0 
  4  5  2  0  0  0  0 
  4  6  1  0  0  0  0 
  6  7  1  0  0  0  0 
  6  8  1  0  0  0  0 
  7  9  1  0  0  0  0 
  8 10  2  0  0  0  0 
  8 11  1  0  0  0  0 
  9 12  2  0  0  0  0 
  9 13  1  0  0  0  0 
 11 14  1  0  0  0  0 
 12 15  1  0  0  0  0 
 16 13  2  0  0  0  0 
 14 17  1  0  0  0  0 
 15 18  2  0  0  0  0 
 18 16  1  0  0  0  0 
M  END
> <Name>
Propanedioic acid, (phenylmethyl)-, diethyl ester

> <Source>
DSSTox2DMolFile

> <Tox>
4.664

> <CAS>
607-81-8

$$$$

  CDK

 12 12  0  0  0  0  0  0  0  0999 V2000
    0.0000   -2.3036    0.0000 O   0  0  0  0  0  0  0  0  0  0  0  0
    1.3300   -2.3036    0.0000 C   0  0  0  0  0  0  0  0  0  0  0  0
    1.9950   -1.1491    0.0000 C   0  0  0  0  0  0  0  0  0  0  0  0
    1.9950   -3.4580    0.0000 C   0  0  0  0  0  0  0  0  0  0  0  0
    1.3300   -0.0000    0.0000 Br  0  0  0  0  0  0  0  0  0  0  0  0
    3.3250   -1.1491    0.0000 C   0  0  0  0  0  0  0  0  0  0  0  0
    3.3250   -3.4580    0.0000 C   0  0  0  0  0  0  0  0  0  0  0  0
    1.3300   -4.6072    0.0000 Br  0  0  0  0  0  0  0  0  0  0  0  0
    3.9901   -0.0000    0.0000 Br  0  0  0  0  0  0  0  0  0  0  0  0
    3.9901   -2.3036    0.0000 C   0  0  0  0  0  0  0  0  0  0  0  0
    3.9901   -4.6072    0.0000 Br  0  0  0  0  0  0  0  0  0  0  0  0
    5.3201   -2.3036    0.0000 Br  0  0  0  0  0  0  0  0  0  0  0  0
  1  2  1  0  0  0  0 
  2  3  2  0  0  0  0 
  2  4  1  0  0  0  0 
  3  5  1  0  0  0  0 
  3  6  1  0  0  0  0 
  7  4  2  0  0  0  0 
  4  8  1  0  0  0  0 
  6  9  1  0  0  0  0 
  6 10  2  0  0  0  0 
 10  7  1  0  0  0  0 
  7 11  1  0  0  0  0 
 10 12  1  0  0  0  0 
M  END
> <Name>
Phenol, pentabromo-

> <Source>
DSSTox2DMolFile

> <Tox>
6.720

> <CAS>
608-71-9

$$$$

  CDK

 11 11  0  0  0  0  0  0  0  0999 V2000
    3.4504   -0.6579    0.0000 C   0  0  0  0  0  0  0  0  0  0  0  0
    3.4504   -2.0104    0.0000 C   0  0  0  0  0  0  0  0  0  0  0  0
    2.3141   -0.0000    0.0000 C   0  0  0  0  0  0  0  0  0  0  0  0
    4.6005   -0.0000    0.0000 Cl  0  0  0  0  0  0  0  0  0  0  0  0
    2.3141   -2.6683    0.0000 C   0  0  0  0  0  0  0  0  0  0  0  0
    4.6005   -2.6683    0.0000 Cl  0  0  0  0  0  0  0  0  0  0  0  0
    1.1501   -0.6579    0.0000 C   0  0  0  0  0  0  0  0  0  0  0  0
    1.1501   -2.0104    0.0000 C   0  0  0  0  0  0  0  0  0  0  0  0
    2.3141   -3.9932    0.0000 Cl  0  0  0  0  0  0  0  0  0  0  0  0
    0.0000   -0.0000    0.0000 Cl  0  0  0  0  0  0  0  0  0  0  0  0
    0.0000   -2.6683    0.0000 Cl  0  0  0  0  0  0  0  0  0  0  0  0
  1  2  1  0  0  0  0 
  1  3  2  0  0  0  0 
  1  4  1  0  0  0  0 
  2  5  2  0  0  0  0 
  2  6  1  0  0  0  0 
  3  7  1  0  0  0  0 
  5  8  1  0  0  0  0 
  5  9  1  0  0  0  0 
  7  8  2  0  0  0  0 
  7 10  1  0  0  0  0 
  8 11  1  0  0  0  0 
M  END
> <Name>
Benzene, pentachloro-

> <Source>
DSSTox2DMolFile

> <Tox>
5.913

> <CAS>
608-93-5

$$$$

  CDK

 10 10  0  0  0  0  0  0  0  0999 V2000
    5.3182   -2.3028    0.0000 O   0  0  0  0  0  0  0  0  0  0  0  0
    3.9887   -2.3028    0.0000 C   0  0  0  0  0  0  0  0  0  0  0  0
    3.3239   -3.4568    0.0000 C   0  0  0  0  0  0  0  0  0  0  0  0
    3.3239   -1.1487    0.0000 C   0  0  0  0  0  0  0  0  0  0  0  0
    3.9887   -4.6056    0.0000 I   0  0  0  0  0  0  0  0  0  0  0  0
    1.9943   -3.4568    0.0000 C   0  0  0  0  0  0  0  0  0  0  0  0
    1.9943   -1.1487    0.0000 C   0  0  0  0  0  0  0  0  0  0  0  0
    3.9887   -0.0000    0.0000 I   0  0  0  0  0  0  0  0  0  0  0  0
    1.3296   -2.3028    0.0000 C   0  0  0  0  0  0  0  0  0  0  0  0
    0.0000   -2.3028    0.0000 I   0  0  0  0  0  0  0  0  0  0  0  0
  1  2  1  0  0  0  0 
  2  3  2  0  0  0  0 
  2  4  1  0  0  0  0 
  3  5  1  0  0  0  0 
  3  6  1  0  0  0  0 
  7  4  2  0  0  0  0 
  4  8  1  0  0  0  0 
  6  9  2  0  0  0  0 
  9  7  1  0  0  0  0 
  9 10  1  0  0  0  0 
M  END
> <Name>
Phenol, 2,4,6-triiodo-

> <Source>
DSSTox2DMolFile

> <Tox>
5.591

> <CAS>
609-23-4

$$$$

  CDK

 13 13  0  0  0  0  0  0  0  0999 V2000
    3.4459   -2.0016    0.0000 C   0  0  0  0  0  0  0  0  0  0  0  0
    4.5965   -2.6608    0.0000 C   0  0  0  0  0  0  0  0  0  0  0  0
    2.2893   -2.6608    0.0000 C   0  0  0  0  0  0  0  0  0  0  0  0
    3.4459   -0.6712    0.0000 N   0  0  0  0  0  0  0  0  0  0  0  0
    4.5965   -3.9913    0.0000 C   0  0  0  0  0  0  0  0  0  0  0  0
    2.2893   -3.9913    0.0000 C   0  0  0  0  0  0  0  0  0  0  0  0
    1.1566   -2.0016    0.0000 N   0  0  0  0  0  0  0  0  0  0  0  0
    2.2893   -0.0000    0.0000 O   0  0  0  0  0  0  0  0  0  0  0  0
    4.5965   -0.0000    0.0000 O   0  0  0  0  0  0  0  0  0  0  0  0
    3.4459   -4.6625    0.0000 C   0  0  0  0  0  0  0  0  0  0  0  0
    0.0000   -2.6608    0.0000 O   0  0  0  0  0  0  0  0  0  0  0  0
    1.1566   -0.6712    0.0000 O   0  0  0  0  0  0  0  0  0  0  0  0
    3.4459   -5.9929    0.0000 C   0  0  0  0  0  0  0  0  0  0  0  0
  1  2  2  0  0  0  0 
  1  3  1  0  0  0  0 
  1  4  1  0  0  0  0 
  2  5  1  0  0  0  0 
  6  3  2  0  0  0  0 
  3  7  1  0  0  0  0 
  4  8  1  0  0  0  0 
  4  9  2  0  0  0  0 
  5 10  2  0  0  0  0 
 10  6  1  0  0  0  0 
  7 11  1  0  0  0  0 
  7 12  2  0  0  0  0 
 10 13  1  0  0  0  0 
M  CHG  1   4   1
M  CHG  1   7   1
M  CHG  1   8  -1
M  CHG  1  11  -1
M  END
> <Name>
Benzene, 4-methyl-1,2-dinitro-

> <Source>
DSSTox2DMolFile

> <Tox>
5.084

> <CAS>
610-39-9

$$$$

  CDK

 12 12  0  0  0  0  0  0  0  0999 V2000
    1.9953   -2.3079    0.0000 C   0  0  0  0  0  0  0  0  0  0  0  0
    0.6651   -2.3079    0.0000 C   0  0  0  0  0  0  0  0  0  0  0  0
    2.6604   -1.1573    0.0000 C   0  0  0  0  0  0  0  0  0  0  0  0
    2.6604   -3.4585    0.0000 C   0  0  0  0  0  0  0  0  0  0  0  0
    0.0000   -3.4585    0.0000 O   0  0  0  0  0  0  0  0  0  0  0  0
    1.9953   -0.0000    0.0000 O   0  0  0  0  0  0  0  0  0  0  0  0
    3.9906   -1.1573    0.0000 C   0  0  0  0  0  0  0  0  0  0  0  0
    3.9906   -3.4585    0.0000 C   0  0  0  0  0  0  0  0  0  0  0  0
    0.6651   -0.0000    0.0000 C   0  0  0  0  0  0  0  0  0  0  0  0
    4.6557   -2.3079    0.0000 C   0  0  0  0  0  0  0  0  0  0  0  0
    5.9859   -2.3079    0.0000 O   0  0  0  0  0  0  0  0  0  0  0  0
    6.6510   -3.4585    0.0000 C   0  0  0  0  0  0  0  0  0  0  0  0
  1  2  1  0  0  0  0 
  1  3  2  0  0  0  0 
  1  4  1  0  0  0  0 
  2  5  2  0  0  0  0 
  3  6  1  0  0  0  0 
  3  7  1  0  0  0  0 
  8  4  2  0  0  0  0 
  6  9  1  0  0  0  0 
  7 10  2  0  0  0  0 
 10  8  1  0  0  0  0 
 10 11  1  0  0  0  0 
 11 12  1  0  0  0  0 
M  END
> <Name>
Benzaldehyde, 2,4-dimethoxy-

> <Source>
DSSTox2DMolFile

> <Tox>
3.917

> <CAS>
613-45-6

$$$$

  CDK

 11 11  0  0  0  0  0  0  0  0999 V2000
    2.6568   -0.0000    0.0000 O   0  0  0  0  0  0  0  0  0  0  0  0
    1.9926   -1.1549    0.0000 C   0  0  0  0  0  0  0  0  0  0  0  0
    2.6568   -2.3038    0.0000 C   0  0  0  0  0  0  0  0  0  0  0  0
    0.6642   -1.1549    0.0000 C   0  0  0  0  0  0  0  0  0  0  0  0
    3.9912   -2.3038    0.0000 N   0  0  0  0  0  0  0  0  0  0  0  0
    1.9926   -3.4587    0.0000 C   0  0  0  0  0  0  0  0  0  0  0  0
    0.0000   -2.3038    0.0000 C   0  0  0  0  0  0  0  0  0  0  0  0
    4.6555   -3.4587    0.0000 C   0  0  0  0  0  0  0  0  0  0  0  0
    0.6642   -3.4587    0.0000 C   0  0  0  0  0  0  0  0  0  0  0  0
    5.9839   -3.4587    0.0000 O   0  0  0  0  0  0  0  0  0  0  0  0
    3.9912   -4.6076    0.0000 C   0  0  0  0  0  0  0  0  0  0  0  0
  1  2  1  0  0  0  0 
  2  3  2  0  0  0  0 
  2  4  1  0  0  0  0 
  3  5  1  0  0  0  0 
  3  6  1  0  0  0  0 
  7  4  2  0  0  0  0 
  5  8  1  0  0  0  0 
  6  9  2  0  0  0  0 
  9  7  1  0  0  0  0 
  8 10  2  0  0  0  0 
  8 11  1  0  0  0  0 
M  END
> <Name>
Acetamide, N-(2-hydroxyphenyl)-

> <Source>
DSSTox2DMolFile

> <Tox>
3.661

> <CAS>
614-80-2

$$$$

  CDK

 14 14  0  0  0  0  0  0  0  0999 V2000
   -1.2209    1.2822   -0.0347 C   0  0  0  0  0  0  0  0  0  0  0  0
   -1.2127   -0.1228   -0.0222 C   0  0  0  0  0  0  0  0  0  0  0  0
   -0.0003    1.9576    0.0005 C   0  0  0  0  0  0  0  0  0  0  0  0
   -2.4732    2.0803   -0.0879 C   0  0  0  0  0  0  0  0  0  0  0  0
    0.0001   -0.8136    0.0029 C   0  0  0  0  0  0  0  0  0  0  0  0
   -2.4802   -0.9344   -0.0402 N   0  0  0  0  0  0  0  0  0  0  0  0
    1.2205    1.2828    0.0360 C   0  0  0  0  0  0  0  0  0  0  0  0
    1.2123   -0.1222    0.0256 C   0  0  0  0  0  0  0  0  0  0  0  0
   -3.3766   -0.6607    0.7292 O   0  0  0  0  0  0  0  0  0  0  0  0
   -2.5636   -1.8560   -0.8244 O   0  0  0  0  0  0  0  0  0  0  0  0
    2.4730    2.0809    0.0860 C   0  0  0  0  0  0  0  0  0  0  0  0
    2.4806   -0.9329    0.0402 N   0  0  0  0  0  0  0  0  0  0  0  0
    2.5721   -1.8475    0.8317 O   0  0  0  0  0  0  0  0  0  0  0  0
    3.3688   -0.6653   -0.7407 O   0  0  0  0  0  0  0  0  0  0  0  0
  1  2  1  0  0  0  0 
  1  3  2  0  0  0  0 
  1  4  1  0  0  0  0 
  2  5  2  0  0  0  0 
  2  6  1  0  0  0  0 
  7  3  1  0  0  0  0 
  5  8  1  0  0  0  0 
  6  9  2  0  0  0  0 
  6 10  1  0  0  0  0 
  8  7  2  0  0  0  0 
  7 11  1  0  0  0  0 
  8 12  1  0  0  0  0 
 12 13  2  0  0  0  0 
 12 14  1  0  0  0  0 
M  CHG  1   6   1
M  CHG  1  10  -1
M  CHG  1  12   1
M  CHG  1  14  -1
M  END
> <Name>
Benzene, 1,5-dimethyl-2,4-dinitro- (9CI)

> <Source>
DougDB3DMolFile

> <Tox>
4.395

> <CAS>
616-72-8

$$$$

  CDK

 14 14  0  0  0  0  0  0  0  0999 V2000
   -1.2222    1.2245    0.0328 C   0  0  0  0  0  0  0  0  0  0  0  0
   -1.1991   -0.1923   -0.0135 C   0  0  0  0  0  0  0  0  0  0  0  0
   -0.0101    1.9436    0.0752 C   0  0  0  0  0  0  0  0  0  0  0  0
   -2.3376    1.9698    0.0419 O   0  0  0  0  0  0  0  0  0  0  0  0
    0.0408   -0.8479   -0.0138 C   0  0  0  0  0  0  0  0  0  0  0  0
   -2.4562   -0.9758   -0.0589 N   0  0  0  0  0  0  0  0  0  0  0  0
    1.2095    1.2870    0.0634 C   0  0  0  0  0  0  0  0  0  0  0  0
    1.2289   -0.1286    0.0112 C   0  0  0  0  0  0  0  0  0  0  0  0
   -3.5113   -0.3471   -0.0356 O   0  0  0  0  0  0  0  0  0  0  0  0
   -2.4428   -2.1815   -0.1215 O   0  0  0  0  0  0  0  0  0  0  0  0
    2.4529    2.0988    0.1165 C   0  0  0  0  0  0  0  0  0  0  0  0
    2.5161   -0.9044   -0.0151 N   0  0  0  0  0  0  0  0  0  0  0  0
    3.3921   -0.5839   -0.7905 O   0  0  0  0  0  0  0  0  0  0  0  0
    2.6375   -1.8494    0.7358 O   0  0  0  0  0  0  0  0  0  0  0  0
  1  2  1  0  0  0  0 
  1  3  2  0  0  0  0 
  1  4  1  0  0  0  0 
  2  5  2  0  0  0  0 
  2  6  1  0  0  0  0 
  7  3  1  0  0  0  0 
  5  8  1  0  0  0  0 
  6  9  2  0  0  0  0 
  6 10  1  0  0  0  0 
  8  7  2  0  0  0  0 
  7 11  1  0  0  0  0 
  8 12  1  0  0  0  0 
 12 13  2  0  0  0  0 
 12 14  1  0  0  0  0 
M  CHG  1   6   1
M  CHG  1  10  -1
M  CHG  1  12   1
M  CHG  1  14  -1
M  END
> <Name>
m-Cresol, 4,6-dinitro-

> <Source>
DougDB3DMolFile

> <Tox>
4.792

> <CAS>
616-73-9

$$$$

  CDK

 13 13  0  0  0  0  0  0  0  0999 V2000
    6.9138   -0.0000    0.0000 N   0  0  0  0  0  0  0  0  0  0  0  0
    5.7601   -0.6696    0.0000 C   0  0  0  0  0  0  0  0  0  0  0  0
    5.7601   -2.0007    0.0000 C   0  0  0  0  0  0  0  0  0  0  0  0
    4.6065   -0.0000    0.0000 C   0  0  0  0  0  0  0  0  0  0  0  0
    6.9138   -2.6622    0.0000 N   0  0  0  0  0  0  0  0  0  0  0  0
    4.6065   -2.6622    0.0000 C   0  0  0  0  0  0  0  0  0  0  0  0
    3.4609   -0.6696    0.0000 C   0  0  0  0  0  0  0  0  0  0  0  0
    8.0674   -2.0007    0.0000 O   0  0  0  0  0  0  0  0  0  0  0  0
    6.9138   -3.9934    0.0000 O   0  0  0  0  0  0  0  0  0  0  0  0
    3.4609   -2.0007    0.0000 C   0  0  0  0  0  0  0  0  0  0  0  0
    2.3073   -2.6622    0.0000 O   0  0  0  0  0  0  0  0  0  0  0  0
    1.1536   -2.0007    0.0000 C   0  0  0  0  0  0  0  0  0  0  0  0
    0.0000   -2.6622    0.0000 C   0  0  0  0  0  0  0  0  0  0  0  0
  1  2  1  0  0  0  0 
  2  3  2  0  0  0  0 
  2  4  1  0  0  0  0 
  3  5  1  0  0  0  0 
  3  6  1  0  0  0  0 
  7  4  2  0  0  0  0 
  5  8  1  0  0  0  0 
  5  9  2  0  0  0  0 
  6 10  2  0  0  0  0 
 10  7  1  0  0  0  0 
 10 11  1  0  0  0  0 
 11 12  1  0  0  0  0 
 12 13  1  0  0  0  0 
M  CHG  1   5   1
M  CHG  1   8  -1
M  END
> <Name>
Benzenamine, 4-ethoxy-2-nitro-

> <Source>
DSSTox2DMolFile

> <Tox>
3.846

> <CAS>
616-86-4

$$$$

  CDK

 13 13  0  0  0  0  0  0  0  0999 V2000
   -0.0001    3.3765    0.0000 N   0  0  0  0  0  0  0  0  0  0  0  0
    0.0000    1.9807    0.0000 C   0  0  0  0  0  0  0  0  0  0  0  0
    1.2174    1.2772    0.0000 C   0  0  0  0  0  0  0  0  0  0  0  0
   -1.2174    1.2773    0.0000 C   0  0  0  0  0  0  0  0  0  0  0  0
    1.2067   -0.1172    0.0000 C   0  0  0  0  0  0  0  0  0  0  0  0
   -1.2067   -0.1172    0.0000 C   0  0  0  0  0  0  0  0  0  0  0  0
   -0.0001   -0.8226    0.0000 C   0  0  0  0  0  0  0  0  0  0  0  0
    2.5120   -0.8679    0.0000 N   0  0  0  0  0  0  0  0  0  0  0  0
   -2.5120   -0.8679    0.0000 N   0  0  0  0  0  0  0  0  0  0  0  0
    3.5527   -0.2412    0.0000 O   0  0  0  0  0  0  0  0  0  0  0  0
    2.5015   -2.0806    0.0000 O   0  0  0  0  0  0  0  0  0  0  0  0
   -3.5529   -0.2415    0.0000 O   0  0  0  0  0  0  0  0  0  0  0  0
   -2.5013   -2.0806    0.0000 O   0  0  0  0  0  0  0  0  0  0  0  0
  1  2  1  0  0  0  0 
  2  3  1  0  0  0  0 
  2  4  2  0  0  0  0 
  3  5  2  0  0  0  0 
  6  4  1  0  0  0  0 
  5  7  1  0  0  0  0 
  5  8  1  0  0  0  0 
  7  6  2  0  0  0  0 
  6  9  1  0  0  0  0 
  8 10  2  0  0  0  0 
  8 11  1  0  0  0  0 
  9 12  2  0  0  0  0 
  9 13  1  0  0  0  0 
M  CHG  1   8   1
M  CHG  1   9   1
M  CHG  1  11  -1
M  CHG  1  13  -1
M  END
> <Name>
Benzenamine, 3,5-dinitro- (9CI)

> <Source>
DougDB3DMolFile

> <Tox>
3.934

> <CAS>
618-87-1

$$$$

  CDK

 13 13  0  0  0  0  0  0  0  0999 V2000
    2.3063   -2.0006    0.0000 C   0  0  0  0  0  0  0  0  0  0  0  0
    3.4562   -2.6586    0.0000 C   0  0  0  0  0  0  0  0  0  0  0  0
    1.1498   -2.6586    0.0000 C   0  0  0  0  0  0  0  0  0  0  0  0
    2.3063   -0.6713    0.0000 N   0  0  0  0  0  0  0  0  0  0  0  0
    3.4562   -3.9879    0.0000 C   0  0  0  0  0  0  0  0  0  0  0  0
    1.1498   -3.9879    0.0000 C   0  0  0  0  0  0  0  0  0  0  0  0
    0.0000   -2.0006    0.0000 C   0  0  0  0  0  0  0  0  0  0  0  0
    1.1498   -0.0000    0.0000 O   0  0  0  0  0  0  0  0  0  0  0  0
    3.4562   -0.0000    0.0000 O   0  0  0  0  0  0  0  0  0  0  0  0
    2.3063   -4.6592    0.0000 C   0  0  0  0  0  0  0  0  0  0  0  0
    2.3063   -5.9885    0.0000 N   0  0  0  0  0  0  0  0  0  0  0  0
    3.4562   -6.6465    0.0000 O   0  0  0  0  0  0  0  0  0  0  0  0
    1.1498   -6.6465    0.0000 O   0  0  0  0  0  0  0  0  0  0  0  0
  1  2  2  0  0  0  0 
  1  3  1  0  0  0  0 
  1  4  1  0  0  0  0 
  2  5  1  0  0  0  0 
  6  3  2  0  0  0  0 
  3  7  1  0  0  0  0 
  4  8  1  0  0  0  0 
  4  9  2  0  0  0  0 
  5 10  2  0  0  0  0 
 10  6  1  0  0  0  0 
 10 11  1  0  0  0  0 
 11 12  1  0  0  0  0 
 11 13  2  0  0  0  0 
M  CHG  1   4   1
M  CHG  1   8  -1
M  CHG  1  11   1
M  CHG  1  12  -1
M  END
> <Name>
Benzene, 2-methyl-1,4-dinitro-

> <Source>
DSSTox2DMolFile

> <Tox>
5.146

> <CAS>
619-15-8

$$$$

  CDK

 11 11  0  0  0  0  0  0  0  0999 V2000
   -2.7694    0.7527    0.0000 C   0  0  0  0  0  0  0  0  0  0  0  0
   -1.5730   -0.0206    0.0000 C   0  0  0  0  0  0  0  0  0  0  0  0
   -3.7453    1.3785    0.0000 N   0  0  0  0  0  0  0  0  0  0  0  0
   -0.3354    0.6253    0.0000 C   0  0  0  0  0  0  0  0  0  0  0  0
   -1.6535   -1.4169    0.0000 C   0  0  0  0  0  0  0  0  0  0  0  0
    0.8349   -0.1414    0.0000 C   0  0  0  0  0  0  0  0  0  0  0  0
   -0.4831   -2.1665    0.0000 C   0  0  0  0  0  0  0  0  0  0  0  0
    0.7577   -1.5394    0.0000 C   0  0  0  0  0  0  0  0  0  0  0  0
    2.1750    0.5370    0.0000 N   0  0  0  0  0  0  0  0  0  0  0  0
    3.1822   -0.1410    0.0000 O   0  0  0  0  0  0  0  0  0  0  0  0
    2.2251    1.7499    0.0000 O   0  0  0  0  0  0  0  0  0  0  0  0
  1  2  1  0  0  0  0 
  1  3  3  0  0  0  0 
  2  4  1  0  0  0  0 
  2  5  2  0  0  0  0 
  4  6  2  0  0  0  0 
  7  5  1  0  0  0  0 
  6  8  1  0  0  0  0 
  6  9  1  0  0  0  0 
  8  7  2  0  0  0  0 
  9 10  2  0  0  0  0 
  9 11  1  0  0  0  0 
M  CHG  1   9   1
M  CHG  1  11  -1
M  END
> <Name>
Benzonitrile, 3-nitro-

> <Source>
DougDB3DMolFile

> <Tox>
3.391

> <CAS>
619-24-9

$$$$

  CDK

 13 13  0  0  0  0  0  0  0  0999 V2000
    3.9911   -3.4590    0.0000 C   0  0  0  0  0  0  0  0  0  0  0  0
    2.6607   -3.4590    0.0000 C   0  0  0  0  0  0  0  0  0  0  0  0
    4.6563   -2.3082    0.0000 C   0  0  0  0  0  0  0  0  0  0  0  0
    1.9956   -2.3082    0.0000 C   0  0  0  0  0  0  0  0  0  0  0  0
    3.9911   -1.1574    0.0000 C   0  0  0  0  0  0  0  0  0  0  0  0
    5.9867   -2.3082    0.0000 C   0  0  0  0  0  0  0  0  0  0  0  0
    0.6652   -2.3082    0.0000 N   0  0  0  0  0  0  0  0  0  0  0  0
    2.6607   -1.1574    0.0000 C   0  0  0  0  0  0  0  0  0  0  0  0
    6.6519   -3.4590    0.0000 O   0  0  0  0  0  0  0  0  0  0  0  0
    6.6519   -1.1574    0.0000 O   0  0  0  0  0  0  0  0  0  0  0  0
    0.0000   -3.4590    0.0000 O   0  0  0  0  0  0  0  0  0  0  0  0
    0.0000   -1.1574    0.0000 O   0  0  0  0  0  0  0  0  0  0  0  0
    5.9867   -0.0000    0.0000 C   0  0  0  0  0  0  0  0  0  0  0  0
  1  2  2  0  0  0  0 
  1  3  1  0  0  0  0 
  2  4  1  0  0  0  0 
  5  3  2  0  0  0  0 
  3  6  1  0  0  0  0 
  4  7  1  0  0  0  0 
  4  8  2  0  0  0  0 
  8  5  1  0  0  0  0 
  6  9  2  0  0  0  0 
  6 10  1  0  0  0  0 
  7 11  2  0  0  0  0 
  7 12  1  0  0  0  0 
 10 13  1  0  0  0  0 
M  CHG  1   7   1
M  CHG  1  12  -1
M  END
> <Name>
Benzoic acid, 4-nitro-, methyl ester

> <Source>
DSSTox2DMolFile

> <Tox>
3.885

> <CAS>
619-50-1

$$$$

  CDK

 11 11  0  0  0  0  0  0  0  0999 V2000
    3.2374    0.0001    0.0000 C   0  0  0  0  0  0  0  0  0  0  0  0
    1.8118   -0.0010    0.0000 C   0  0  0  0  0  0  0  0  0  0  0  0
    4.3966    0.0013    0.0000 N   0  0  0  0  0  0  0  0  0  0  0  0
    1.1190   -1.2143    0.0000 C   0  0  0  0  0  0  0  0  0  0  0  0
    1.1194    1.2127    0.0000 C   0  0  0  0  0  0  0  0  0  0  0  0
   -0.2705   -1.2128    0.0000 C   0  0  0  0  0  0  0  0  0  0  0  0
   -0.2699    1.2118    0.0000 C   0  0  0  0  0  0  0  0  0  0  0  0
   -0.9698   -0.0003    0.0000 C   0  0  0  0  0  0  0  0  0  0  0  0
   -2.4719    0.0004    0.0000 N   0  0  0  0  0  0  0  0  0  0  0  0
   -3.0658   -1.0587    0.0000 O   0  0  0  0  0  0  0  0  0  0  0  0
   -3.0643    1.0603    0.0000 O   0  0  0  0  0  0  0  0  0  0  0  0
  1  2  1  0  0  0  0 
  1  3  3  0  0  0  0 
  2  4  1  0  0  0  0 
  2  5  2  0  0  0  0 
  4  6  2  0  0  0  0 
  7  5  1  0  0  0  0 
  6  8  1  0  0  0  0 
  8  7  2  0  0  0  0 
  8  9  1  0  0  0  0 
  9 10  2  0  0  0  0 
  9 11  1  0  0  0  0 
M  CHG  1   9   1
M  CHG  1  11  -1
M  END
> <Name>
Benzonitrile, 4-nitro-

> <Source>
DougDB3DMolFile

> <Tox>
3.783

> <CAS>
619-72-7

$$$$

  CDK

 16 17  0  0  0  0  0  0  0  0999 V2000
    6.9072   -1.9893    0.0000 C   0  0  0  0  0  0  0  0  0  0  0  0
    8.0584   -1.3262    0.0000 C   0  0  0  0  0  0  0  0  0  0  0  0
    6.9072   -3.3247    0.0000 C   0  0  0  0  0  0  0  0  0  0  0  0
    9.2096   -1.9893    0.0000 C   0  0  0  0  0  0  0  0  0  0  0  0
    8.0584   -3.9878    0.0000 C   0  0  0  0  0  0  0  0  0  0  0  0
    5.7560   -3.9878    0.0000 O   0  0  0  0  0  0  0  0  0  0  0  0
    9.2096   -3.3247    0.0000 C   0  0  0  0  0  0  0  0  0  0  0  0
    4.6048   -3.3247    0.0000 C   0  0  0  0  0  0  0  0  0  0  0  0
    3.4536   -3.9878    0.0000 C   0  0  0  0  0  0  0  0  0  0  0  0
    4.6048   -1.9893    0.0000 C   0  0  0  0  0  0  0  0  0  0  0  0
    2.3024   -3.3247    0.0000 C   0  0  0  0  0  0  0  0  0  0  0  0
    3.4536   -1.3262    0.0000 C   0  0  0  0  0  0  0  0  0  0  0  0
    2.3024   -1.9893    0.0000 C   0  0  0  0  0  0  0  0  0  0  0  0
    1.1512   -1.3262    0.0000 N   0  0  0  0  0  0  0  0  0  0  0  0
    0.0000   -1.9893    0.0000 O   0  0  0  0  0  0  0  0  0  0  0  0
    1.1512   -0.0000    0.0000 O   0  0  0  0  0  0  0  0  0  0  0  0
  1  2  2  0  0  0  0 
  1  3  1  0  0  0  0 
  2  4  1  0  0  0  0 
  5  3  2  0  0  0  0 
  3  6  1  0  0  0  0 
  4  7  2  0  0  0  0 
  7  5  1  0  0  0  0 
  6  8  1  0  0  0  0 
  8  9  2  0  0  0  0 
  8 10  1  0  0  0  0 
  9 11  1  0  0  0  0 
 12 10  2  0  0  0  0 
 11 13  2  0  0  0  0 
 13 12  1  0  0  0  0 
 13 14  1  0  0  0  0 
 14 15  2  0  0  0  0 
 14 16  1  0  0  0  0 
M  CHG  1  14   1
M  CHG  1  16  -1
M  END
> <Name>
Ether, p-nitrophenyl phenyl (8CI)

> <Source>
DSSTox2DMolFile

> <Tox>
4.910

> <CAS>
620-88-2

$$$$

  CDK

 16 17  0  0  0  0  0  0  0  0999 V2000
    9.2059   -0.6628    0.0000 C   0  0  0  0  0  0  0  0  0  0  0  0
    9.2059   -1.9977    0.0000 C   0  0  0  0  0  0  0  0  0  0  0  0
    8.0551   -0.0000    0.0000 C   0  0  0  0  0  0  0  0  0  0  0  0
    8.0551   -2.6605    0.0000 C   0  0  0  0  0  0  0  0  0  0  0  0
    6.9044   -0.6628    0.0000 C   0  0  0  0  0  0  0  0  0  0  0  0
    6.9044   -1.9977    0.0000 C   0  0  0  0  0  0  0  0  0  0  0  0
    5.7537   -2.6605    0.0000 C   0  0  0  0  0  0  0  0  0  0  0  0
    4.6029   -1.9977    0.0000 S   0  0  0  0  0  0  0  0  0  0  0  0
    4.6029   -0.6628    0.0000 O   0  0  0  0  0  0  0  0  0  0  0  0
    3.4522   -2.6605    0.0000 C   0  0  0  0  0  0  0  0  0  0  0  0
    2.3015   -1.9977    0.0000 C   0  0  0  0  0  0  0  0  0  0  0  0
    1.1507   -2.6605    0.0000 C   0  0  0  0  0  0  0  0  0  0  0  0
    2.3015   -0.6628    0.0000 C   0  0  0  0  0  0  0  0  0  0  0  0
    0.0000   -1.9977    0.0000 C   0  0  0  0  0  0  0  0  0  0  0  0
    1.1507   -0.0000    0.0000 C   0  0  0  0  0  0  0  0  0  0  0  0
    0.0000   -0.6628    0.0000 C   0  0  0  0  0  0  0  0  0  0  0  0
  1  2  2  0  0  0  0 
  1  3  1  0  0  0  0 
  2  4  1  0  0  0  0 
  3  5  2  0  0  0  0 
  4  6  2  0  0  0  0 
  6  5  1  0  0  0  0 
  6  7  1  0  0  0  0 
  7  8  1  0  0  0  0 
  8  9  2  0  0  0  0 
  8 10  1  0  0  0  0 
 10 11  1  0  0  0  0 
 11 12  2  0  0  0  0 
 11 13  1  0  0  0  0 
 12 14  1  0  0  0  0 
 13 15  2  0  0  0  0 
 14 16  2  0  0  0  0 
 16 15  1  0  0  0  0 
M  END
> <Name>
Benzyl sulfoxide (6CI,8CI)

> <Source>
DSSTox2DMolFile

> <Tox>
3.459

> <CAS>
621-08-9

$$$$

  CDK

 11 11  0  0  0  0  0  0  0  0999 V2000
    6.9094   -2.6601    0.0000 O   0  0  0  0  0  0  0  0  0  0  0  0
    5.7555   -1.9968    0.0000 C   0  0  0  0  0  0  0  0  0  0  0  0
    4.6086   -2.6601    0.0000 C   0  0  0  0  0  0  0  0  0  0  0  0
    5.7555   -0.6633    0.0000 C   0  0  0  0  0  0  0  0  0  0  0  0
    3.4547   -1.9968    0.0000 C   0  0  0  0  0  0  0  0  0  0  0  0
    4.6086   -0.0000    0.0000 C   0  0  0  0  0  0  0  0  0  0  0  0
    2.3008   -2.6601    0.0000 N   0  0  0  0  0  0  0  0  0  0  0  0
    3.4547   -0.6633    0.0000 C   0  0  0  0  0  0  0  0  0  0  0  0
    1.1539   -1.9968    0.0000 C   0  0  0  0  0  0  0  0  0  0  0  0
    1.1539   -0.6633    0.0000 O   0  0  0  0  0  0  0  0  0  0  0  0
    0.0000   -2.6601    0.0000 C   0  0  0  0  0  0  0  0  0  0  0  0
  1  2  1  0  0  0  0 
  2  3  2  0  0  0  0 
  2  4  1  0  0  0  0 
  3  5  1  0  0  0  0 
  6  4  2  0  0  0  0 
  5  7  1  0  0  0  0 
  5  8  2  0  0  0  0 
  8  6  1  0  0  0  0 
  7  9  1  0  0  0  0 
  9 10  2  0  0  0  0 
  9 11  1  0  0  0  0 
M  END
> <Name>
Acetamide, N-(3-hydroxyphenyl)-

> <Source>
DSSTox2DMolFile

> <Tox>
2.126

> <CAS>
621-42-1

$$$$

  CDK

 10 10  0  0  0  0  0  0  0  0999 V2000
    0.0000   -0.0000    0.0000 Cl  0  0  0  0  0  0  0  0  0  0  0  0
    0.6654   -1.1511    0.0000 C   0  0  0  0  0  0  0  0  0  0  0  0
    1.9961   -1.1511    0.0000 C   0  0  0  0  0  0  0  0  0  0  0  0
    2.6614   -0.0000    0.0000 C   0  0  0  0  0  0  0  0  0  0  0  0
    2.6614   -2.3021    0.0000 C   0  0  0  0  0  0  0  0  0  0  0  0
    3.9921   -0.0000    0.0000 C   0  0  0  0  0  0  0  0  0  0  0  0
    3.9921   -2.3021    0.0000 C   0  0  0  0  0  0  0  0  0  0  0  0
    4.6575   -1.1511    0.0000 C   0  0  0  0  0  0  0  0  0  0  0  0
    5.9882   -1.1511    0.0000 C   0  0  0  0  0  0  0  0  0  0  0  0
    6.6535   -2.3021    0.0000 Cl  0  0  0  0  0  0  0  0  0  0  0  0
  1  2  1  0  0  0  0 
  2  3  1  0  0  0  0 
  3  4  2  0  0  0  0 
  3  5  1  0  0  0  0 
  4  6  1  0  0  0  0 
  7  5  2  0  0  0  0 
  6  8  2  0  0  0  0 
  8  7  1  0  0  0  0 
  8  9  1  0  0  0  0 
  9 10  1  0  0  0  0 
M  END
> <Name>
p-Xylene, alpha,alpha'-dichloro-

> <Source>
DSSTox2DMolFile

> <Tox>
6.652

> <CAS>
623-25-6

$$$$

  CDK

 12 11  0  0  0  0  0  0  0  0999 V2000
    3.4136   -1.2814    0.0000 C   0  0  0  0  0  0  0  0  0  0  0  0
    4.5823   -1.9887    0.0000 C   0  0  0  0  0  0  0  0  0  0  0  0
    2.2860   -1.9887    0.0000 O   0  0  0  0  0  0  0  0  0  0  0  0
    3.4136   -0.0000    0.0000 O   0  0  0  0  0  0  0  0  0  0  0  0
    5.7099   -1.2814    0.0000 C   0  0  0  0  0  0  0  0  0  0  0  0
    1.1584   -1.2814    0.0000 C   0  0  0  0  0  0  0  0  0  0  0  0
    6.8375   -1.9887    0.0000 C   0  0  0  0  0  0  0  0  0  0  0  0
    0.0000   -1.9887    0.0000 C   0  0  0  0  0  0  0  0  0  0  0  0
    7.9651   -1.2814    0.0000 O   0  0  0  0  0  0  0  0  0  0  0  0
    6.8375   -3.2701    0.0000 O   0  0  0  0  0  0  0  0  0  0  0  0
    9.1235   -1.9887    0.0000 C   0  0  0  0  0  0  0  0  0  0  0  0
   10.2512   -1.2814    0.0000 C   0  0  0  0  0  0  0  0  0  0  0  0
  1  2  1  0  0  0  0 
  1  3  1  0  0  0  0 
  1  4  2  0  0  0  0 
  2  5  2  0  0  0  0 
  3  6  1  0  0  0  0 
  5  7  1  0  0  0  0 
  6  8  1  0  0  0  0 
  7  9  1  0  0  0  0 
  7 10  2  0  0  0  0 
  9 11  1  0  0  0  0 
 11 12  1  0  0  0  0 
M  END
> <Name>
2-Butenedioic acid (E)-, diethyl ester (9CI)

> <Source>
DSSTox2DMolFile

> <Tox>
4.583

> <CAS>
623-91-6

$$$$

  CDK

  7  7  0  0  0  0  0  0  0  0999 V2000
    2.3417   -2.1548    0.0000 O   0  0  0  0  0  0  0  0  0  0  0  0
    1.0774   -1.7407    0.0000 C   0  0  0  0  0  0  0  0  0  0  0  0
    3.1208   -1.0774    0.0000 C   0  0  0  0  0  0  0  0  0  0  0  0
    0.0000   -2.5243    0.0000 C   0  0  0  0  0  0  0  0  0  0  0  0
    1.0774   -0.4140    0.0000 C   0  0  0  0  0  0  0  0  0  0  0  0
    2.3417   -0.0000    0.0000 C   0  0  0  0  0  0  0  0  0  0  0  0
    4.4520   -1.0774    0.0000 C   0  0  0  0  0  0  0  0  0  0  0  0
  1  2  1  0  0  0  0 
  1  3  1  0  0  0  0 
  2  4  1  0  0  0  0 
  2  5  2  0  0  0  0 
  6  3  2  0  0  0  0 
  3  7  1  0  0  0  0 
  5  6  1  0  0  0  0 
M  END
> <Name>
Furan, 2,5-dimethyl-

> <Source>
DSSTox2DMolFile

> <Tox>
3.131

> <CAS>
625-86-5

$$$$

  CDK

  5  4  0  0  0  0  0  0  0  0999 V2000
    2.3050   -0.6638    0.0000 C   0  0  0  0  0  0  0  0  0  0  0  0
    1.1525   -0.0000    0.0000 C   0  0  0  0  0  0  0  0  0  0  0  0
    3.4575   -0.0000    0.0000 C   0  0  0  0  0  0  0  0  0  0  0  0
    0.0000   -0.6638    0.0000 Cl  0  0  0  0  0  0  0  0  0  0  0  0
    4.6099   -0.6638    0.0000 O   0  0  0  0  0  0  0  0  0  0  0  0
  1  2  1  0  0  0  0 
  1  3  1  0  0  0  0 
  2  4  1  0  0  0  0 
  3  5  1  0  0  0  0 
M  END
> <Name>
1-Propanol, 3-chloro-

> <Source>
DSSTox2DMolFile

> <Tox>
2.072

> <CAS>
627-30-5

$$$$

  CDK

  7  6  0  0  0  0  0  0  0  0999 V2000
    0.0000   -0.6638    0.0000 Cl  0  0  0  0  0  0  0  0  0  0  0  0
    1.1548   -0.0000    0.0000 C   0  0  0  0  0  0  0  0  0  0  0  0
    2.3027   -0.6638    0.0000 C   0  0  0  0  0  0  0  0  0  0  0  0
    3.4575   -0.0000    0.0000 C   0  0  0  0  0  0  0  0  0  0  0  0
    4.6122   -0.6638    0.0000 C   0  0  0  0  0  0  0  0  0  0  0  0
    5.7601   -0.0000    0.0000 C   0  0  0  0  0  0  0  0  0  0  0  0
    6.9149   -0.6638    0.0000 Cl  0  0  0  0  0  0  0  0  0  0  0  0
  1  2  1  0  0  0  0 
  2  3  1  0  0  0  0 
  3  4  1  0  0  0  0 
  4  5  1  0  0  0  0 
  5  6  1  0  0  0  0 
  6  7  1  0  0  0  0 
M  END
> <Name>
Pentane, 1,5-dichloro-

> <Source>
DSSTox2DMolFile

> <Tox>
3.746

> <CAS>
628-76-2

$$$$

  CDK

  8  7  0  0  0  0  0  0  0  0999 V2000
    8.0744   -0.0000    0.0000 Br  0  0  0  0  0  0  0  0  0  0  0  0
    6.9197   -0.6621    0.0000 C   0  0  0  0  0  0  0  0  0  0  0  0
    5.7651   -0.0000    0.0000 C   0  0  0  0  0  0  0  0  0  0  0  0
    4.6105   -0.6621    0.0000 C   0  0  0  0  0  0  0  0  0  0  0  0
    3.4639   -0.0000    0.0000 C   0  0  0  0  0  0  0  0  0  0  0  0
    2.3093   -0.6621    0.0000 C   0  0  0  0  0  0  0  0  0  0  0  0
    1.1546   -0.0000    0.0000 C   0  0  0  0  0  0  0  0  0  0  0  0
    0.0000   -0.6621    0.0000 C   0  0  0  0  0  0  0  0  0  0  0  0
  1  2  1  0  0  0  0 
  2  3  1  0  0  0  0 
  3  4  1  0  0  0  0 
  4  5  1  0  0  0  0 
  5  6  1  0  0  0  0 
  6  7  1  0  0  0  0 
  7  8  1  0  0  0  0 
M  END
> <Name>
Heptane, 1-bromo-

> <Source>
DSSTox2DMolFile

> <Tox>
5.086

> <CAS>
629-04-9

$$$$

  CDK

  8  7  0  0  0  0  0  0  0  0999 V2000
    8.0744   -0.0000    0.0000 C   0  0  0  0  0  0  0  0  0  0  0  0
    6.9197   -0.6621    0.0000 C   0  0  0  0  0  0  0  0  0  0  0  0
    5.7651   -0.0000    0.0000 C   0  0  0  0  0  0  0  0  0  0  0  0
    4.6105   -0.6621    0.0000 S   0  0  0  0  0  0  0  0  0  0  0  0
    3.4639   -0.0000    0.0000 S   0  0  0  0  0  0  0  0  0  0  0  0
    2.3093   -0.6621    0.0000 C   0  0  0  0  0  0  0  0  0  0  0  0
    1.1546   -0.0000    0.0000 C   0  0  0  0  0  0  0  0  0  0  0  0
    0.0000   -0.6621    0.0000 C   0  0  0  0  0  0  0  0  0  0  0  0
  1  2  1  0  0  0  0 
  2  3  1  0  0  0  0 
  3  4  1  0  0  0  0 
  4  5  1  0  0  0  0 
  5  6  1  0  0  0  0 
  6  7  1  0  0  0  0 
  7  8  1  0  0  0  0 
M  END
> <Name>
Propyl disulfide (8CI)

> <Source>
DSSTox2DMolFile

> <Tox>
4.759

> <CAS>
629-19-6

$$$$

  CDK

 10  9  0  0  0  0  0  0  0  0999 V2000
   10.3724   -0.0000    0.0000 N   0  0  0  0  0  0  0  0  0  0  0  0
    9.2210   -0.6638    0.0000 C   0  0  0  0  0  0  0  0  0  0  0  0
    8.0697   -1.3277    0.0000 C   0  0  0  0  0  0  0  0  0  0  0  0
    6.9184   -0.6638    0.0000 C   0  0  0  0  0  0  0  0  0  0  0  0
    5.7670   -1.3277    0.0000 C   0  0  0  0  0  0  0  0  0  0  0  0
    4.6053   -0.6638    0.0000 C   0  0  0  0  0  0  0  0  0  0  0  0
    3.4540   -1.3277    0.0000 C   0  0  0  0  0  0  0  0  0  0  0  0
    2.3027   -0.6638    0.0000 C   0  0  0  0  0  0  0  0  0  0  0  0
    1.1513   -1.3277    0.0000 C   0  0  0  0  0  0  0  0  0  0  0  0
    0.0000   -1.9915    0.0000 N   0  0  0  0  0  0  0  0  0  0  0  0
  1  2  3  0  0  0  0 
  2  3  1  0  0  0  0 
  3  4  1  0  0  0  0 
  4  5  1  0  0  0  0 
  5  6  1  0  0  0  0 
  6  7  1  0  0  0  0 
  7  8  1  0  0  0  0 
  8  9  1  0  0  0  0 
  9 10  3  0  0  0  0 
M  END
> <Name>
Octanedinitrile

> <Source>
DSSTox2DMolFile

> <Tox>
2.412

> <CAS>
629-40-3

$$$$

  CDK

  6  5  0  0  0  0  0  0  0  0999 V2000
    0.0000   -2.3036    0.0000 Br  0  0  0  0  0  0  0  0  0  0  0  0
    0.6650   -1.1518    0.0000 C   0  0  0  0  0  0  0  0  0  0  0  0
    0.0000   -0.0000    0.0000 Br  0  0  0  0  0  0  0  0  0  0  0  0
    1.9950   -1.1518    0.0000 C   0  0  0  0  0  0  0  0  0  0  0  0
    2.6600   -0.0000    0.0000 O   0  0  0  0  0  0  0  0  0  0  0  0
    2.6600   -2.3036    0.0000 O   0  0  0  0  0  0  0  0  0  0  0  0
  1  2  1  0  0  0  0 
  3  2  1  0  0  0  0 
  4  2  1  0  0  0  0 
  4  5  2  0  0  0  0 
  4  6  1  0  0  0  0 
M  END
> <Name>
Acetic acid, dibromo-

> <Source>
DSSTox2DMolFile

> <Tox>
3.499

> <CAS>
631-64-1

$$$$

  CDK

 10 10  0  0  0  0  0  0  0  0999 V2000
    3.9887   -0.0000    0.0000 Cl  0  0  0  0  0  0  0  0  0  0  0  0
    3.3239   -1.1541    0.0000 C   0  0  0  0  0  0  0  0  0  0  0  0
    3.9887   -2.3081    0.0000 C   0  0  0  0  0  0  0  0  0  0  0  0
    1.9943   -1.1541    0.0000 C   0  0  0  0  0  0  0  0  0  0  0  0
    5.3182   -2.3081    0.0000 Cl  0  0  0  0  0  0  0  0  0  0  0  0
    3.3239   -3.4568    0.0000 C   0  0  0  0  0  0  0  0  0  0  0  0
    1.3296   -2.3081    0.0000 C   0  0  0  0  0  0  0  0  0  0  0  0
    1.3296   -0.0000    0.0000 Cl  0  0  0  0  0  0  0  0  0  0  0  0
    1.9943   -3.4568    0.0000 C   0  0  0  0  0  0  0  0  0  0  0  0
    0.0000   -2.3081    0.0000 Cl  0  0  0  0  0  0  0  0  0  0  0  0
  1  2  1  0  0  0  0 
  2  3  2  0  0  0  0 
  2  4  1  0  0  0  0 
  3  5  1  0  0  0  0 
  3  6  1  0  0  0  0 
  7  4  2  0  0  0  0 
  4  8  1  0  0  0  0 
  6  9  2  0  0  0  0 
  9  7  1  0  0  0  0 
  7 10  1  0  0  0  0 
M  END
> <Name>
Benzene, 1,2,3,4-tetrachloro-

> <Source>
DSSTox2DMolFile

> <Tox>
5.293

> <CAS>
634-66-2

$$$$

  CDK

 10 10  0  0  0  0  0  0  0  0999 V2000
    0.0000   -2.3081    0.0000 N   0  0  0  0  0  0  0  0  0  0  0  0
    1.3296   -2.3081    0.0000 C   0  0  0  0  0  0  0  0  0  0  0  0
    1.9943   -1.1541    0.0000 C   0  0  0  0  0  0  0  0  0  0  0  0
    1.9943   -3.4568    0.0000 C   0  0  0  0  0  0  0  0  0  0  0  0
    1.3296   -0.0000    0.0000 Cl  0  0  0  0  0  0  0  0  0  0  0  0
    3.3239   -1.1541    0.0000 C   0  0  0  0  0  0  0  0  0  0  0  0
    3.3239   -3.4568    0.0000 C   0  0  0  0  0  0  0  0  0  0  0  0
    3.9887   -0.0000    0.0000 Cl  0  0  0  0  0  0  0  0  0  0  0  0
    3.9887   -2.3081    0.0000 C   0  0  0  0  0  0  0  0  0  0  0  0
    5.3182   -2.3081    0.0000 Cl  0  0  0  0  0  0  0  0  0  0  0  0
  1  2  1  0  0  0  0 
  2  3  2  0  0  0  0 
  2  4  1  0  0  0  0 
  3  5  1  0  0  0  0 
  3  6  1  0  0  0  0 
  7  4  2  0  0  0  0 
  6  8  1  0  0  0  0 
  6  9  2  0  0  0  0 
  9  7  1  0  0  0  0 
  9 10  1  0  0  0  0 
M  END
> <Name>
Benzenamine, 2,3,4-trichloro- (9CI)

> <Source>
DSSTox2DMolFile

> <Tox>
4.737

> <CAS>
634-67-3

$$$$

  CDK

 10 10  0  0  0  0  0  0  0  0999 V2000
    2.3039   -1.9986    0.0000 C   0  0  0  0  0  0  0  0  0  0  0  0
    1.1519   -2.6610    0.0000 C   0  0  0  0  0  0  0  0  0  0  0  0
    2.3039   -0.6681    0.0000 C   0  0  0  0  0  0  0  0  0  0  0  0
    3.4558   -2.6610    0.0000 C   0  0  0  0  0  0  0  0  0  0  0  0
    0.0000   -1.9986    0.0000 O   0  0  0  0  0  0  0  0  0  0  0  0
    1.1519   -0.0000    0.0000 O   0  0  0  0  0  0  0  0  0  0  0  0
    3.4558   -0.0000    0.0000 C   0  0  0  0  0  0  0  0  0  0  0  0
    4.6078   -1.9986    0.0000 C   0  0  0  0  0  0  0  0  0  0  0  0
    4.6078   -0.6681    0.0000 C   0  0  0  0  0  0  0  0  0  0  0  0
    5.7597   -2.6610    0.0000 Cl  0  0  0  0  0  0  0  0  0  0  0  0
  1  2  1  0  0  0  0 
  1  3  2  0  0  0  0 
  1  4  1  0  0  0  0 
  2  5  2  0  0  0  0 
  3  6  1  0  0  0  0 
  3  7  1  0  0  0  0 
  8  4  2  0  0  0  0 
  7  9  2  0  0  0  0 
  9  8  1  0  0  0  0 
  8 10  1  0  0  0  0 
M  END
> <Name>
Benzaldehyde, 5-chloro-2-hydroxy-

> <Source>
DSSTox2DMolFile

> <Tox>
5.308

> <CAS>
635-93-8

$$$$

  CDK

 13 13  0  0  0  0  0  0  0  0999 V2000
    1.9926   -2.3038    0.0000 C   0  0  0  0  0  0  0  0  0  0  0  0
    0.6642   -2.3038    0.0000 C   0  0  0  0  0  0  0  0  0  0  0  0
    2.6568   -1.1549    0.0000 C   0  0  0  0  0  0  0  0  0  0  0  0
    2.6568   -3.4586    0.0000 C   0  0  0  0  0  0  0  0  0  0  0  0
    0.0000   -1.1549    0.0000 O   0  0  0  0  0  0  0  0  0  0  0  0
    1.9926   -0.0000    0.0000 F   0  0  0  0  0  0  0  0  0  0  0  0
    3.9912   -1.1549    0.0000 C   0  0  0  0  0  0  0  0  0  0  0  0
    3.9912   -3.4586    0.0000 C   0  0  0  0  0  0  0  0  0  0  0  0
    1.9926   -4.6075    0.0000 F   0  0  0  0  0  0  0  0  0  0  0  0
    4.6554   -0.0000    0.0000 F   0  0  0  0  0  0  0  0  0  0  0  0
    4.6554   -2.3038    0.0000 C   0  0  0  0  0  0  0  0  0  0  0  0
    4.6554   -4.6075    0.0000 F   0  0  0  0  0  0  0  0  0  0  0  0
    5.9838   -2.3038    0.0000 F   0  0  0  0  0  0  0  0  0  0  0  0
  1  2  1  0  0  0  0 
  1  3  2  0  0  0  0 
  1  4  1  0  0  0  0 
  2  5  2  0  0  0  0 
  3  6  1  0  0  0  0 
  3  7  1  0  0  0  0 
  8  4  2  0  0  0  0 
  4  9  1  0  0  0  0 
  7 10  1  0  0  0  0 
  7 11  2  0  0  0  0 
 11  8  1  0  0  0  0 
  8 12  1  0  0  0  0 
 11 13  1  0  0  0  0 
M  END
> <Name>
Benzaldehyde, pentafluoro- (8CI)(9CI)

> <Source>
DSSTox2DMolFile

> <Tox>
5.251

> <CAS>
653-37-2

$$$$

  CDK

  6  5  0  0  0  0  0  0  0  0999 V2000
    3.3250   -1.1509    0.0000 Cl  0  0  0  0  0  0  0  0  0  0  0  0
    1.9943   -1.1509    0.0000 C   0  0  0  0  0  0  0  0  0  0  0  0
    1.3307   -0.0000    0.0000 Cl  0  0  0  0  0  0  0  0  0  0  0  0
    1.3307   -2.3053    0.0000 C   0  0  0  0  0  0  0  0  0  0  0  0
    1.9943   -3.4563    0.0000 N   0  0  0  0  0  0  0  0  0  0  0  0
    0.0000   -2.3053    0.0000 O   0  0  0  0  0  0  0  0  0  0  0  0
  1  2  1  0  0  0  0 
  2  3  1  0  0  0  0 
  2  4  1  0  0  0  0 
  4  5  1  0  0  0  0 
  4  6  2  0  0  0  0 
M  END
> <Name>
Acetamide, 2,2-dichloro-

> <Source>
DSSTox2DMolFile

> <Tox>
2.725

> <CAS>
683-72-7

$$$$

  CDK

  9  8  0  0  0  0  0  0  0  0999 V2000
    7.3122   -2.3033    0.0000 C   0  0  0  0  0  0  0  0  0  0  0  0
    5.9814   -2.3033    0.0000 C   0  0  0  0  0  0  0  0  0  0  0  0
    5.3160   -1.1553    0.0000 C   0  0  0  0  0  0  0  0  0  0  0  0
    3.9852   -1.1553    0.0000 C   0  0  0  0  0  0  0  0  0  0  0  0
    3.3271   -0.0000    0.0000 C   0  0  0  0  0  0  0  0  0  0  0  0
    1.9962   -0.0000    0.0000 C   0  0  0  0  0  0  0  0  0  0  0  0
    1.3308   -1.1553    0.0000 C   0  0  0  0  0  0  0  0  0  0  0  0
    1.9962   -2.3033    0.0000 C   0  0  0  0  0  0  0  0  0  0  0  0
    0.0000   -1.1553    0.0000 N   0  0  0  0  0  0  0  0  0  0  0  0
  1  2  1  0  0  0  0 
  2  3  1  0  0  0  0 
  3  4  1  0  0  0  0 
  4  5  1  0  0  0  0 
  5  6  1  0  0  0  0 
  6  7  1  0  0  0  0 
  7  8  1  0  0  0  0 
  7  9  1  0  0  0  0 
M  END
> <Name>
Heptylamine, 1-methyl-

> <Source>
DSSTox2DMolFile

> <Tox>
4.396

> <CAS>
693-16-3

$$$$

  CDK

 11 10  0  0  0  0  0  0  0  0999 V2000
    6.9113   -0.0000    0.0000 C   0  0  0  0  0  0  0  0  0  0  0  0
    8.0632   -0.6635    0.0000 C   0  0  0  0  0  0  0  0  0  0  0  0
    9.2151   -0.0000    0.0000 O   0  0  0  0  0  0  0  0  0  0  0  0
    8.0632   -1.9997    0.0000 C   0  0  0  0  0  0  0  0  0  0  0  0
    6.9113   -2.6632    0.0000 C   0  0  0  0  0  0  0  0  0  0  0  0
    5.7595   -1.9997    0.0000 C   0  0  0  0  0  0  0  0  0  0  0  0
    4.6076   -2.6632    0.0000 C   0  0  0  0  0  0  0  0  0  0  0  0
    3.4557   -1.9997    0.0000 C   0  0  0  0  0  0  0  0  0  0  0  0
    2.3038   -2.6632    0.0000 C   0  0  0  0  0  0  0  0  0  0  0  0
    1.1519   -1.9997    0.0000 C   0  0  0  0  0  0  0  0  0  0  0  0
    0.0000   -2.6632    0.0000 C   0  0  0  0  0  0  0  0  0  0  0  0
  1  2  1  0  0  0  0 
  2  3  2  0  0  0  0 
  2  4  1  0  0  0  0 
  4  5  1  0  0  0  0 
  5  6  1  0  0  0  0 
  6  7  1  0  0  0  0 
  7  8  1  0  0  0  0 
  8  9  1  0  0  0  0 
  9 10  1  0  0  0  0 
 10 11  1  0  0  0  0 
M  END
> <Name>
2-Decanone

> <Source>
DSSTox2DMolFile

> <Tox>
4.510

> <CAS>
693-54-9

$$$$

  CDK

 11 10  0  0  0  0  0  0  0  0999 V2000
    0.0000   -0.6673    0.0000 C   0  0  0  0  0  0  0  0  0  0  0  0
    1.1505   -0.0000    0.0000 C   0  0  0  0  0  0  0  0  0  0  0  0
    2.3010   -0.6673    0.0000 C   0  0  0  0  0  0  0  0  0  0  0  0
    3.4515   -0.0000    0.0000 C   0  0  0  0  0  0  0  0  0  0  0  0
    4.6020   -0.6673    0.0000 C   0  0  0  0  0  0  0  0  0  0  0  0
    5.7525   -0.0000    0.0000 O   0  0  0  0  0  0  0  0  0  0  0  0
    6.9029   -0.6673    0.0000 C   0  0  0  0  0  0  0  0  0  0  0  0
    8.0534   -0.0000    0.0000 C   0  0  0  0  0  0  0  0  0  0  0  0
    9.2039   -0.6673    0.0000 C   0  0  0  0  0  0  0  0  0  0  0  0
   10.3544   -0.0000    0.0000 C   0  0  0  0  0  0  0  0  0  0  0  0
   11.5049   -0.6673    0.0000 C   0  0  0  0  0  0  0  0  0  0  0  0
  1  2  1  0  0  0  0 
  2  3  1  0  0  0  0 
  3  4  1  0  0  0  0 
  4  5  1  0  0  0  0 
  5  6  1  0  0  0  0 
  6  7  1  0  0  0  0 
  7  8  1  0  0  0  0 
  8  9  1  0  0  0  0 
  9 10  1  0  0  0  0 
 10 11  1  0  0  0  0 
M  END
> <Name>
Pentane, 1,1'-oxybis-

> <Source>
DSSTox2DMolFile

> <Tox>
4.709

> <CAS>
693-65-2

$$$$

  CDK

  6  6  0  0  0  0  0  0  0  0999 V2000
    0.0000   -1.0738    0.0000 C   0  0  0  0  0  0  0  0  0  0  0  0
    1.3304   -1.0738    0.0000 C   0  0  0  0  0  0  0  0  0  0  0  0
    2.1104   -0.0000    0.0000 C   0  0  0  0  0  0  0  0  0  0  0  0
    2.1104   -2.1509    0.0000 N   0  0  0  0  0  0  0  0  0  0  0  0
    3.3767   -0.4086    0.0000 O   0  0  0  0  0  0  0  0  0  0  0  0
    3.3767   -1.7390    0.0000 C   0  0  0  0  0  0  0  0  0  0  0  0
  1  2  1  0  0  0  0 
  2  3  2  0  0  0  0 
  2  4  1  0  0  0  0 
  3  5  1  0  0  0  0 
  6  4  2  0  0  0  0 
  5  6  1  0  0  0  0 
M  END
> <Name>
4-Methyloxazole

> <Source>
DSSTox2DMolFile

> <Tox>
1.777

> <CAS>
693-93-6

$$$$

  CDK

  6  6  0  0  0  0  0  0  0  0999 V2000
    0.0000   -1.0738    0.0000 C   0  0  0  0  0  0  0  0  0  0  0  0
    1.3304   -1.0738    0.0000 C   0  0  0  0  0  0  0  0  0  0  0  0
    2.1104   -0.0000    0.0000 N   0  0  0  0  0  0  0  0  0  0  0  0
    2.1104   -2.1509    0.0000 N   0  0  0  0  0  0  0  0  0  0  0  0
    3.3767   -0.4086    0.0000 C   0  0  0  0  0  0  0  0  0  0  0  0
    3.3767   -1.7390    0.0000 C   0  0  0  0  0  0  0  0  0  0  0  0
  1  2  1  0  0  0  0 
  2  3  2  0  0  0  0 
  2  4  1  0  0  0  0 
  3  5  1  0  0  0  0 
  6  4  1  0  0  0  0 
  5  6  2  0  0  0  0 
M  END
> <Name>
1H-Imidazole, 2-methyl-

> <Source>
DSSTox2DMolFile

> <Tox>
2.458

> <CAS>
693-98-1

$$$$

  CDK

 11 11  0  0  0  0  0  0  0  0999 V2000
    0.1069    0.9681    0.0000 C   0  0  0  0  0  0  0  0  0  0  0  0
   -0.5617   -0.2793    0.0000 C   0  0  0  0  0  0  0  0  0  0  0  0
    1.5154    1.0151   -0.0004 C   0  0  0  0  0  0  0  0  0  0  0  0
   -0.5110    2.1672    0.0001 O   0  0  0  0  0  0  0  0  0  0  0  0
    0.2089   -1.4592    0.0001 C   0  0  0  0  0  0  0  0  0  0  0  0
   -2.0343   -0.3588    0.0000 N   0  0  0  0  0  0  0  0  0  0  0  0
    2.2485   -0.1608   -0.0003 C   0  0  0  0  0  0  0  0  0  0  0  0
    1.5857   -1.4004    0.0000 C   0  0  0  0  0  0  0  0  0  0  0  0
   -2.6118   -1.4222   -0.0001 O   0  0  0  0  0  0  0  0  0  0  0  0
   -2.6640    0.6975    0.0001 O   0  0  0  0  0  0  0  0  0  0  0  0
    3.7321   -0.1046    0.0003 C   0  0  0  0  0  0  0  0  0  0  0  0
  1  2  1  0  0  0  0 
  1  3  2  0  0  0  0 
  1  4  1  0  0  0  0 
  2  5  2  0  0  0  0 
  2  6  1  0  0  0  0 
  7  3  1  0  0  0  0 
  5  8  1  0  0  0  0 
  6  9  2  0  0  0  0 
  6 10  1  0  0  0  0 
  8  7  2  0  0  0  0 
  7 11  1  0  0  0  0 
M  CHG  1   6   1
M  CHG  1  10  -1
M  END
> <Name>
Phenol, 5-methyl-2-nitro-

> <Source>
DougDB3DMolFile

> <Tox>
3.513

> <CAS>
700-38-9

$$$$

  CDK

 11 13  0  0  0  0  0  0  0  0999 V2000
    0.0000   -3.1300    0.0000 C   0  0  0  0  0  0  0  0  0  0  0  0
    1.1947   -2.5204    0.0000 C   0  0  0  0  0  0  0  0  0  0  0  0
    0.7324   -1.8453    0.0000 C   0  0  0  0  0  0  0  0  0  0  0  0
    1.1947   -1.3052    0.0000 C   0  0  0  0  0  0  0  0  0  0  0  0
    2.3936   -3.1300    0.0000 C   0  0  0  0  0  0  0  0  0  0  0  0
    0.7324   -0.6301    0.0000 C   0  0  0  0  0  0  0  0  0  0  0  0
    1.9271   -2.4508    0.0000 C   0  0  0  0  0  0  0  0  0  0  0  0
    1.9271   -0.0205    0.0000 C   0  0  0  0  0  0  0  0  0  0  0  0
    3.1259   -1.8453    0.0000 C   0  0  0  0  0  0  0  0  0  0  0  0
    3.1259   -0.6301    0.0000 C   0  0  0  0  0  0  0  0  0  0  0  0
    4.0915   -0.0000    0.0000 O   0  0  0  0  0  0  0  0  0  0  0  0
  1  2  1  0  0  0  0 
  1  3  1  0  0  0  0 
  2  4  1  0  0  0  0 
  2  5  1  0  0  0  0 
  3  6  1  0  0  0  0 
  3  7  1  0  0  0  0 
  4  8  1  0  0  0  0 
  5  9  1  0  0  0  0 
  6  8  1  0  0  0  0 
  7  9  1  0  0  0  0 
  8 10  1  0  0  0  0 
  9 10  1  0  0  0  0 
 10 11  2  0  0  0  0 
M  END
> <Name>
Tricyclo(3.3.1.13,7)decanone (9CI)

> <Source>
DSSTox2DMolFile

> <Tox>
3.393

> <CAS>
700-58-3

$$$$

  CDK

 12 12  0  0  0  0  0  0  0  0999 V2000
   10.3444   -1.6034    0.0000 C   0  0  0  0  0  0  0  0  0  0  0  0
    9.1962   -2.2654    0.0000 C   0  0  0  0  0  0  0  0  0  0  0  0
    8.0376   -1.6034    0.0000 C   0  0  0  0  0  0  0  0  0  0  0  0
    6.8894   -2.2654    0.0000 C   0  0  0  0  0  0  0  0  0  0  0  0
    5.7308   -1.6034    0.0000 C   0  0  0  0  0  0  0  0  0  0  0  0
    4.5826   -2.2654    0.0000 C   0  0  0  0  0  0  0  0  0  0  0  0
    3.4343   -1.6034    0.0000 C   0  0  0  0  0  0  0  0  0  0  0  0
    2.2137   -2.1413    0.0000 O   0  0  0  0  0  0  0  0  0  0  0  0
    3.2895   -0.2793    0.0000 C   0  0  0  0  0  0  0  0  0  0  0  0
    1.3241   -1.1482    0.0000 C   0  0  0  0  0  0  0  0  0  0  0  0
    1.9861   -0.0000    0.0000 C   0  0  0  0  0  0  0  0  0  0  0  0
    0.0000   -1.2931    0.0000 O   0  0  0  0  0  0  0  0  0  0  0  0
  1  2  1  0  0  0  0 
  2  3  1  0  0  0  0 
  3  4  1  0  0  0  0 
  4  5  1  0  0  0  0 
  5  6  1  0  0  0  0 
  6  7  1  0  0  0  0 
  7  8  1  0  0  0  0 
  7  9  1  0  0  0  0 
  8 10  1  0  0  0  0 
 11  9  1  0  0  0  0 
 10 12  2  0  0  0  0 
 10 11  1  0  0  0  0 
M  END
> <Name>
2(3H)-Furanone, 5-hexyldihydro-

> <Source>
DSSTox2DMolFile

> <Tox>
3.976

> <CAS>
706-14-9

$$$$

  CDK

 13 13  0  0  0  0  0  0  0  0999 V2000
    2.3011   -2.6605    0.0000 C   0  0  0  0  0  0  0  0  0  0  0  0
    1.1540   -1.9902    0.0000 C   0  0  0  0  0  0  0  0  0  0  0  0
    3.4552   -1.9902    0.0000 C   0  0  0  0  0  0  0  0  0  0  0  0
    0.0000   -2.6605    0.0000 Cl  0  0  0  0  0  0  0  0  0  0  0  0
    1.1540   -0.6634    0.0000 C   0  0  0  0  0  0  0  0  0  0  0  0
    3.4552   -0.6634    0.0000 C   0  0  0  0  0  0  0  0  0  0  0  0
    4.6092   -2.6605    0.0000 N   0  0  0  0  0  0  0  0  0  0  0  0
    0.0000   -0.0000    0.0000 Cl  0  0  0  0  0  0  0  0  0  0  0  0
    2.3011   -0.0000    0.0000 C   0  0  0  0  0  0  0  0  0  0  0  0
    5.7563   -1.9902    0.0000 C   0  0  0  0  0  0  0  0  0  0  0  0
    5.7563   -0.6634    0.0000 O   0  0  0  0  0  0  0  0  0  0  0  0
    6.9103   -2.6605    0.0000 C   0  0  0  0  0  0  0  0  0  0  0  0
    6.9103   -3.9873    0.0000 C   0  0  0  0  0  0  0  0  0  0  0  0
  1  2  2  0  0  0  0 
  1  3  1  0  0  0  0 
  2  4  1  0  0  0  0 
  2  5  1  0  0  0  0 
  6  3  2  0  0  0  0 
  3  7  1  0  0  0  0 
  5  8  1  0  0  0  0 
  5  9  2  0  0  0  0 
  9  6  1  0  0  0  0 
  7 10  1  0  0  0  0 
 10 11  2  0  0  0  0 
 10 12  1  0  0  0  0 
 12 13  1  0  0  0  0 
M  END
> <Name>
Propanamide, N-(3,4-dichlorophenyl)-

> <Source>
DSSTox2DMolFile

> <Tox>
4.404

> <CAS>
709-98-8

$$$$

  CDK

 19 20  0  0  0  0  0  0  0  0999 V2000
    5.3390   -2.4857    0.0000 N   0  0  0  0  0  0  0  0  0  0  0  0
    6.1127   -3.5593    0.0000 C   0  0  0  0  0  0  0  0  0  0  0  0
    6.1127   -1.4218    0.0000 C   0  0  0  0  0  0  0  0  0  0  0  0
    4.0042   -2.4664    0.0000 C   0  0  0  0  0  0  0  0  0  0  0  0
    7.3701   -3.1531    0.0000 C   0  0  0  0  0  0  0  0  0  0  0  0
    5.6872   -4.8360    0.0000 O   0  0  0  0  0  0  0  0  0  0  0  0
    7.3701   -1.8183    0.0000 C   0  0  0  0  0  0  0  0  0  0  0  0
    5.6872   -0.1354    0.0000 O   0  0  0  0  0  0  0  0  0  0  0  0
    3.3465   -1.3251    0.0000 S   0  0  0  0  0  0  0  0  0  0  0  0
    8.5211   -3.8205    0.0000 C   0  0  0  0  0  0  0  0  0  0  0  0
    8.5211   -1.1510    0.0000 C   0  0  0  0  0  0  0  0  0  0  0  0
    2.0021   -1.3251    0.0000 P   0  0  0  0  0  0  0  0  0  0  0  0
    9.6720   -3.1531    0.0000 C   0  0  0  0  0  0  0  0  0  0  0  0
    9.6720   -1.8377    0.0000 C   0  0  0  0  0  0  0  0  0  0  0  0
    2.0021   -0.0000    0.0000 S   0  0  0  0  0  0  0  0  0  0  0  0
    0.6674   -1.3251    0.0000 O   0  0  0  0  0  0  0  0  0  0  0  0
    2.0021   -2.6598    0.0000 O   0  0  0  0  0  0  0  0  0  0  0  0
    0.0000   -0.1741    0.0000 C   0  0  0  0  0  0  0  0  0  0  0  0
    0.8608   -3.3175    0.0000 C   0  0  0  0  0  0  0  0  0  0  0  0
  1  2  1  0  0  0  0 
  1  3  1  0  0  0  0 
  1  4  1  0  0  0  0 
  2  5  1  0  0  0  0 
  2  6  2  0  0  0  0 
  3  7  1  0  0  0  0 
  3  8  2  0  0  0  0 
  4  9  1  0  0  0  0 
  5 10  1  0  0  0  0 
  5  7  2  0  0  0  0 
  7 11  1  0  0  0  0 
 12  9  1  0  0  0  0 
 10 13  2  0  0  0  0 
 11 14  2  0  0  0  0 
 12 15  2  0  0  0  0 
 12 16  1  0  0  0  0 
 12 17  1  0  0  0  0 
 14 13  1  0  0  0  0 
 16 18  1  0  0  0  0 
 17 19  1  0  0  0  0 
M  END
> <Name>
Phosphorodithioic acid, S-((1,3-dihydro-1,3-dioxo-2H-isoindol-2-yl)methyl) O,O-dimethyl ester

> <Source>
DSSTox2DMolFile

> <Tox>
4.593

> <CAS>
732-11-6

$$$$

  CDK

 19 19  0  0  0  0  0  0  0  0999 V2000
    2.6612   -5.7579    0.0000 O   0  0  0  0  0  0  0  0  0  0  0  0
    3.3248   -4.6105    0.0000 C   0  0  0  0  0  0  0  0  0  0  0  0
    2.6612   -3.4561    0.0000 C   0  0  0  0  0  0  0  0  0  0  0  0
    4.6589   -4.6105    0.0000 C   0  0  0  0  0  0  0  0  0  0  0  0
    3.3248   -2.3018    0.0000 C   0  0  0  0  0  0  0  0  0  0  0  0
    1.3272   -3.4561    0.0000 C   0  0  0  0  0  0  0  0  0  0  0  0
    5.3225   -3.4561    0.0000 C   0  0  0  0  0  0  0  0  0  0  0  0
    5.3225   -5.7579    0.0000 C   0  0  0  0  0  0  0  0  0  0  0  0
    4.6589   -2.3018    0.0000 C   0  0  0  0  0  0  0  0  0  0  0  0
    1.3272   -4.7833    0.0000 C   0  0  0  0  0  0  0  0  0  0  0  0
    0.0000   -3.4561    0.0000 C   0  0  0  0  0  0  0  0  0  0  0  0
    1.3272   -2.1290    0.0000 C   0  0  0  0  0  0  0  0  0  0  0  0
    5.9860   -6.9123    0.0000 C   0  0  0  0  0  0  0  0  0  0  0  0
    4.1681   -6.4284    0.0000 C   0  0  0  0  0  0  0  0  0  0  0  0
    6.4699   -5.0943    0.0000 C   0  0  0  0  0  0  0  0  0  0  0  0
    5.3225   -1.1544    0.0000 C   0  0  0  0  0  0  0  0  0  0  0  0
    6.4699   -1.8179    0.0000 C   0  0  0  0  0  0  0  0  0  0  0  0
    4.1681   -0.4839    0.0000 C   0  0  0  0  0  0  0  0  0  0  0  0
    5.9860   -0.0000    0.0000 C   0  0  0  0  0  0  0  0  0  0  0  0
  1  2  1  0  0  0  0 
  2  3  2  0  0  0  0 
  2  4  1  0  0  0  0 
  3  5  1  0  0  0  0 
  3  6  1  0  0  0  0 
  7  4  2  0  0  0  0 
  4  8  1  0  0  0  0 
  5  9  2  0  0  0  0 
  6 10  1  0  0  0  0 
  6 11  1  0  0  0  0 
  6 12  1  0  0  0  0 
  9  7  1  0  0  0  0 
  8 13  1  0  0  0  0 
  8 14  1  0  0  0  0 
  8 15  1  0  0  0  0 
  9 16  1  0  0  0  0 
 16 17  1  0  0  0  0 
 16 18  1  0  0  0  0 
 16 19  1  0  0  0  0 
M  END
> <Name>
Phenol, 2,4,6-tri-tert-butyl- (6CI,7CI,8CI)

> <Source>
DSSTox2DMolFile

> <Tox>
6.634

> <CAS>
732-26-3

$$$$

  CDK

 11 10  0  0  0  0  0  0  0  0999 V2000
    4.6098   -0.0000    0.0000 C   0  0  0  0  0  0  0  0  0  0  0  0
    5.7570   -0.6635    0.0000 O   0  0  0  0  0  0  0  0  0  0  0  0
    3.4556   -0.6635    0.0000 N   0  0  0  0  0  0  0  0  0  0  0  0
    3.4556   -1.9973    0.0000 C   0  0  0  0  0  0  0  0  0  0  0  0
    2.3014   -0.0000    0.0000 C   0  0  0  0  0  0  0  0  0  0  0  0
    4.6098   -2.6608    0.0000 C   0  0  0  0  0  0  0  0  0  0  0  0
    1.1542   -0.6635    0.0000 C   0  0  0  0  0  0  0  0  0  0  0  0
    5.7570   -1.9973    0.0000 C   0  0  0  0  0  0  0  0  0  0  0  0
    1.1542   -1.9973    0.0000 C   0  0  0  0  0  0  0  0  0  0  0  0
    6.9112   -2.6608    0.0000 C   0  0  0  0  0  0  0  0  0  0  0  0
    0.0000   -2.6608    0.0000 C   0  0  0  0  0  0  0  0  0  0  0  0
  1  2  2  0  0  0  0 
  1  3  1  0  0  0  0 
  3  4  1  0  0  0  0 
  3  5  1  0  0  0  0 
  4  6  1  0  0  0  0 
  5  7  1  0  0  0  0 
  6  8  1  0  0  0  0 
  7  9  1  0  0  0  0 
  8 10  1  0  0  0  0 
  9 11  1  0  0  0  0 
M  END
> <Name>
Formamide, N,N-di-n-butyl-

> <Source>
DSSTox2DMolFile

> <Tox>
3.246

> <CAS>
761-65-9

$$$$

  CDK

 11 13  0  0  0  0  0  0  0  0999 V2000
    0.0000   -3.1065    0.0000 C   0  0  0  0  0  0  0  0  0  0  0  0
    1.1942   -2.4991    0.0000 C   0  0  0  0  0  0  0  0  0  0  0  0
    0.7305   -1.8220    0.0000 C   0  0  0  0  0  0  0  0  0  0  0  0
    1.1942   -1.2844    0.0000 C   0  0  0  0  0  0  0  0  0  0  0  0
    2.3883   -3.1065    0.0000 C   0  0  0  0  0  0  0  0  0  0  0  0
    0.7305   -0.6073    0.0000 C   0  0  0  0  0  0  0  0  0  0  0  0
    1.9246   -2.4294    0.0000 C   0  0  0  0  0  0  0  0  0  0  0  0
    1.9246   -0.0000    0.0000 C   0  0  0  0  0  0  0  0  0  0  0  0
    3.1188   -1.8220    0.0000 C   0  0  0  0  0  0  0  0  0  0  0  0
    3.1188   -0.6073    0.0000 C   0  0  0  0  0  0  0  0  0  0  0  0
    4.1037   -2.4622    0.0000 N   0  0  0  0  0  0  0  0  0  0  0  0
  1  2  1  0  0  0  0 
  1  3  1  0  0  0  0 
  2  4  1  0  0  0  0 
  2  5  1  0  0  0  0 
  3  6  1  0  0  0  0 
  3  7  1  0  0  0  0 
  4  8  1  0  0  0  0 
  5  9  1  0  0  0  0 
  6  8  1  0  0  0  0 
  7  9  1  0  0  0  0 
  8 10  1  0  0  0  0 
  9 10  1  0  0  0  0 
  9 11  1  0  0  0  0 
M  END
> <Name>
Tricyclo(3.3.1.1(sup 3,7))decan-1-amine

> <Source>
DSSTox2DMolFile

> <Tox>
3.782

> <CAS>
768-94-5

$$$$

  CDK

 11 11  0  0  0  0  0  0  0  0999 V2000
   -1.2085   -1.2624    0.0027 C   0  0  0  0  0  0  0  0  0  0  0  0
    0.2194   -1.2183    0.0015 C   0  0  0  0  0  0  0  0  0  0  0  0
   -1.9539   -0.1148    0.0016 C   0  0  0  0  0  0  0  0  0  0  0  0
    0.8653   -0.0079   -0.0001 C   0  0  0  0  0  0  0  0  0  0  0  0
    0.9351   -2.5190   -0.0035 C   0  0  0  0  0  0  0  0  0  0  0  0
   -3.4430   -0.1359    0.0002 C   0  0  0  0  0  0  0  0  0  0  0  0
   -1.3179    1.1275    0.0000 N   0  0  0  0  0  0  0  0  0  0  0  0
    0.1075    1.2442   -0.0009 C   0  0  0  0  0  0  0  0  0  0  0  0
    2.2818    0.0901   -0.0011 C   0  0  0  0  0  0  0  0  0  0  0  0
    0.5332    2.3920   -0.0022 O   0  0  0  0  0  0  0  0  0  0  0  0
    3.4390    0.1775    0.0040 N   0  0  0  0  0  0  0  0  0  0  0  0
  1  2  1  0  0  0  0 
  3  1  2  0  0  0  0 
  2  4  2  0  0  0  0 
  2  5  1  0  0  0  0 
  3  6  1  0  0  0  0 
  7  3  1  0  0  0  0 
  4  8  1  0  0  0  0 
  4  9  1  0  0  0  0 
  8  7  1  0  0  0  0 
  8 10  2  0  0  0  0 
  9 11  3  0  0  0  0 
M  END
> <Name>
3-Pyridinecarbonitrile, 1,2-dihydro-4,6-dimethyl-2-oxo-

> <Source>
DougDB3DMolFile

> <Tox>
2.975

> <CAS>
769-28-8

$$$$

  CDK

 18 18  0  0  0  0  0  0  0  0999 V2000
    0.0000   -1.1496    0.0000 Cl  0  0  0  0  0  0  0  0  0  0  0  0
    1.3305   -1.1496    0.0000 C   0  0  0  0  0  0  0  0  0  0  0  0
    1.9905   -0.0000    0.0000 C   0  0  0  0  0  0  0  0  0  0  0  0
    1.9905   -2.2992    0.0000 C   0  0  0  0  0  0  0  0  0  0  0  0
    3.3210   -0.0000    0.0000 C   0  0  0  0  0  0  0  0  0  0  0  0
    3.3210   -2.2992    0.0000 C   0  0  0  0  0  0  0  0  0  0  0  0
    3.9916   -1.1496    0.0000 C   0  0  0  0  0  0  0  0  0  0  0  0
    5.3222   -1.1496    0.0000 S   0  0  0  0  0  0  0  0  0  0  0  0
    5.9821   -2.2992    0.0000 C   0  0  0  0  0  0  0  0  0  0  0  0
    7.3127   -2.2992    0.0000 S   0  0  0  0  0  0  0  0  0  0  0  0
    7.9833   -3.4594    0.0000 P   0  0  0  0  0  0  0  0  0  0  0  0
    6.8337   -4.1194    0.0000 S   0  0  0  0  0  0  0  0  0  0  0  0
    9.1329   -2.7888    0.0000 O   0  0  0  0  0  0  0  0  0  0  0  0
    8.6539   -4.6090    0.0000 O   0  0  0  0  0  0  0  0  0  0  0  0
    9.1329   -1.4583    0.0000 C   0  0  0  0  0  0  0  0  0  0  0  0
    9.9844   -4.6090    0.0000 C   0  0  0  0  0  0  0  0  0  0  0  0
   10.2931   -0.7983    0.0000 C   0  0  0  0  0  0  0  0  0  0  0  0
   10.6444   -3.4594    0.0000 C   0  0  0  0  0  0  0  0  0  0  0  0
  1  2  1  0  0  0  0 
  2  3  2  0  0  0  0 
  2  4  1  0  0  0  0 
  3  5  1  0  0  0  0 
  4  6  2  0  0  0  0 
  5  7  2  0  0  0  0 
  7  6  1  0  0  0  0 
  7  8  1  0  0  0  0 
  8  9  1  0  0  0  0 
  9 10  1  0  0  0  0 
 10 11  1  0  0  0  0 
 11 12  2  0  0  0  0 
 11 13  1  0  0  0  0 
 11 14  1  0  0  0  0 
 13 15  1  0  0  0  0 
 14 16  1  0  0  0  0 
 15 17  1  0  0  0  0 
 16 18  1  0  0  0  0 
M  END
> <Name>
Phosphorodithioic acid, S-(((4-chlorophenyl)thio)methyl) O,O-diethyl ester

> <Source>
DSSTox2DMolFile

> <Tox>
6.177

> <CAS>
786-19-6

$$$$

  CDK

 20 22  0  0  0  0  0  0  0  0999 V2000
    5.1422   -5.9886    0.0000 C   0  0  0  0  0  0  0  0  0  0  0  0
    5.1422   -7.3220    0.0000 C   0  0  0  0  0  0  0  0  0  0  0  0
    3.9924   -5.3258    0.0000 C   0  0  0  0  0  0  0  0  0  0  0  0
    3.9924   -7.9847    0.0000 C   0  0  0  0  0  0  0  0  0  0  0  0
    2.8426   -5.9886    0.0000 C   0  0  0  0  0  0  0  0  0  0  0  0
    3.9924   -3.9924    0.0000 P   0  0  0  0  0  0  0  0  0  0  0  0
    2.8426   -7.3220    0.0000 C   0  0  0  0  0  0  0  0  0  0  0  0
    5.3258   -3.9924    0.0000 O   0  0  0  0  0  0  0  0  0  0  0  0
    2.6589   -3.9924    0.0000 C   0  0  0  0  0  0  0  0  0  0  0  0
    3.9924   -2.6589    0.0000 C   0  0  0  0  0  0  0  0  0  0  0  0
    1.9962   -5.1422    0.0000 C   0  0  0  0  0  0  0  0  0  0  0  0
    1.9962   -2.8426    0.0000 C   0  0  0  0  0  0  0  0  0  0  0  0
    2.8426   -1.9962    0.0000 C   0  0  0  0  0  0  0  0  0  0  0  0
    5.1422   -1.9962    0.0000 C   0  0  0  0  0  0  0  0  0  0  0  0
    0.6627   -5.1422    0.0000 C   0  0  0  0  0  0  0  0  0  0  0  0
    0.6627   -2.8426    0.0000 C   0  0  0  0  0  0  0  0  0  0  0  0
    2.8426   -0.6627    0.0000 C   0  0  0  0  0  0  0  0  0  0  0  0
    5.1422   -0.6627    0.0000 C   0  0  0  0  0  0  0  0  0  0  0  0
    0.0000   -3.9924    0.0000 C   0  0  0  0  0  0  0  0  0  0  0  0
    3.9924   -0.0000    0.0000 C   0  0  0  0  0  0  0  0  0  0  0  0
  1  2  2  0  0  0  0 
  1  3  1  0  0  0  0 
  2  4  1  0  0  0  0 
  5  3  2  0  0  0  0 
  3  6  1  0  0  0  0 
  4  7  2  0  0  0  0 
  7  5  1  0  0  0  0 
  6  8  2  0  0  0  0 
  6  9  1  0  0  0  0 
  6 10  1  0  0  0  0 
  9 11  2  0  0  0  0 
  9 12  1  0  0  0  0 
 10 13  2  0  0  0  0 
 10 14  1  0  0  0  0 
 11 15  1  0  0  0  0 
 16 12  2  0  0  0  0 
 13 17  1  0  0  0  0 
 18 14  2  0  0  0  0 
 15 19  2  0  0  0  0 
 19 16  1  0  0  0  0 
 17 20  2  0  0  0  0 
 20 18  1  0  0  0  0 
M  END
> <Name>
Phosphine oxide, triphenyl-

> <Source>
DSSTox2DMolFile

> <Tox>
3.715

> <CAS>
791-28-6

$$$$

  CDK

  7  6  0  0  0  0  0  0  0  0999 V2000
    1.6373   -0.0000    0.0000 O   0  0  0  0  0  0  0  0  0  0  0  0
    2.3034   -1.1517    0.0000 P   0  0  0  0  0  0  0  0  0  0  0  0
    2.9694   -2.3034    0.0000 O   0  0  0  0  0  0  0  0  0  0  0  0
    1.1517   -1.8178    0.0000 O   0  0  0  0  0  0  0  0  0  0  0  0
    3.4550   -0.4856    0.0000 O   0  0  0  0  0  0  0  0  0  0  0  0
    4.2973   -2.3034    0.0000 C   0  0  0  0  0  0  0  0  0  0  0  0
    0.0000   -1.1517    0.0000 C   0  0  0  0  0  0  0  0  0  0  0  0
  1  2  2  0  0  0  0 
  2  3  1  0  0  0  0 
  2  4  1  0  0  0  0 
  2  5  1  0  0  0  0 
  3  6  1  0  0  0  0 
  4  7  1  0  0  0  0 
M  END
> <Name>
Phosphoric acid, dimethyl ester

> <Source>
DSSTox2DMolFile

> <Tox>
3.845

> <CAS>
813-78-5

$$$$

  CDK

  8  7  0  0  0  0  0  0  0  0999 V2000
    0.0000   -0.0000    0.0000 C   0  0  0  0  0  0  0  0  0  0  0  0
    0.6642   -1.1549    0.0000 C   0  0  0  0  0  0  0  0  0  0  0  0
    1.9926   -1.1549    0.0000 C   0  0  0  0  0  0  0  0  0  0  0  0
    2.6569   -0.0000    0.0000 O   0  0  0  0  0  0  0  0  0  0  0  0
    2.6569   -2.3038    0.0000 O   0  0  0  0  0  0  0  0  0  0  0  0
    3.9913   -2.3038    0.0000 C   0  0  0  0  0  0  0  0  0  0  0  0
    4.6555   -1.1549    0.0000 C   0  0  0  0  0  0  0  0  0  0  0  0
    5.9839   -1.1549    0.0000 O   0  0  0  0  0  0  0  0  0  0  0  0
  1  2  2  0  0  0  0 
  2  3  1  0  0  0  0 
  3  4  2  0  0  0  0 
  3  5  1  0  0  0  0 
  5  6  1  0  0  0  0 
  6  7  1  0  0  0  0 
  7  8  1  0  0  0  0 
M  END
> <Name>
2-Propenoic acid, 2-hydroxyethyl ester

> <Source>
DSSTox2DMolFile

> <Tox>
4.384

> <CAS>
818-61-1

$$$$

  CDK

  9  8  0  0  0  0  0  0  0  0999 V2000
    0.0000   -2.6579    0.0000 C   0  0  0  0  0  0  0  0  0  0  0  0
    1.1518   -1.9975    0.0000 C   0  0  0  0  0  0  0  0  0  0  0  0
    2.3035   -1.3290    0.0000 C   0  0  0  0  0  0  0  0  0  0  0  0
    2.3035   -0.0000    0.0000 O   0  0  0  0  0  0  0  0  0  0  0  0
    3.4553   -1.9975    0.0000 C   0  0  0  0  0  0  0  0  0  0  0  0
    4.5990   -1.3290    0.0000 C   0  0  0  0  0  0  0  0  0  0  0  0
    5.7508   -1.9975    0.0000 C   0  0  0  0  0  0  0  0  0  0  0  0
    6.9026   -1.3290    0.0000 C   0  0  0  0  0  0  0  0  0  0  0  0
    8.0543   -1.9975    0.0000 C   0  0  0  0  0  0  0  0  0  0  0  0
  1  2  3  0  0  0  0 
  2  3  1  0  0  0  0 
  3  4  1  0  0  0  0 
  3  5  1  0  0  0  0 
  5  6  1  0  0  0  0 
  6  7  1  0  0  0  0 
  7  8  1  0  0  0  0 
  8  9  1  0  0  0  0 
M  END
> <Name>
(1)-Oct-1-yn-3-ol

> <Source>
DSSTox2DMolFile

> <Tox>
5.485

> <CAS>
818-72-4

$$$$

  CDK

 10  9  0  0  0  0  0  0  0  0999 V2000
    0.0000   -1.9996    0.0000 C   0  0  0  0  0  0  0  0  0  0  0  0
    1.1518   -1.3361    0.0000 C   0  0  0  0  0  0  0  0  0  0  0  0
    2.3036   -1.9996    0.0000 C   0  0  0  0  0  0  0  0  0  0  0  0
    3.4555   -1.3361    0.0000 C   0  0  0  0  0  0  0  0  0  0  0  0
    4.6073   -1.9996    0.0000 C   0  0  0  0  0  0  0  0  0  0  0  0
    5.7591   -1.3361    0.0000 C   0  0  0  0  0  0  0  0  0  0  0  0
    6.9109   -1.9996    0.0000 C   0  0  0  0  0  0  0  0  0  0  0  0
    8.0628   -1.3361    0.0000 C   0  0  0  0  0  0  0  0  0  0  0  0
    8.0628   -0.0000    0.0000 O   0  0  0  0  0  0  0  0  0  0  0  0
    9.2146   -1.9996    0.0000 C   0  0  0  0  0  0  0  0  0  0  0  0
  1  2  1  0  0  0  0 
  2  3  1  0  0  0  0 
  3  4  1  0  0  0  0 
  4  5  1  0  0  0  0 
  5  6  1  0  0  0  0 
  6  7  1  0  0  0  0 
  7  8  1  0  0  0  0 
  8  9  2  0  0  0  0 
  8 10  1  0  0  0  0 
M  END
> <Name>
2-Nonanone

> <Source>
DSSTox2DMolFile

> <Tox>
3.971

> <CAS>
821-55-6

$$$$

  CDK

  8  8  0  0  0  0  0  0  0  0999 V2000
    3.9907   -2.3027    0.0000 Cl  0  0  0  0  0  0  0  0  0  0  0  0
    2.6618   -2.3027    0.0000 C   0  0  0  0  0  0  0  0  0  0  0  0
    1.9954   -3.4560    0.0000 C   0  0  0  0  0  0  0  0  0  0  0  0
    1.9954   -1.1533    0.0000 C   0  0  0  0  0  0  0  0  0  0  0  0
    0.6665   -3.4560    0.0000 C   0  0  0  0  0  0  0  0  0  0  0  0
    0.6665   -1.1533    0.0000 C   0  0  0  0  0  0  0  0  0  0  0  0
    2.6618   -0.0000    0.0000 Cl  0  0  0  0  0  0  0  0  0  0  0  0
    0.0000   -2.3027    0.0000 C   0  0  0  0  0  0  0  0  0  0  0  0
  2  1  1  6  0  0  0 
  2  3  1  0  0  0  0 
  2  4  1  0  0  0  0 
  3  5  1  0  0  0  0 
  6  4  1  0  0  0  0 
  4  7  1  0  0  0  0 
  5  8  1  0  0  0  0 
  8  6  1  0  0  0  0 
M  END
> <Name>
trans-1,2-Dichlorocyclohexane

> <Source>
DSSTox2DMolFile

> <Tox>
3.920

> <CAS>
822-86-6

$$$$

  CDK

 14 15  0  0  0  0  0  0  0  0999 V2000
    5.7555   -0.6691    0.0000 C   0  0  0  0  0  0  0  0  0  0  0  0
    6.9082   -0.0000    0.0000 C   0  0  0  0  0  0  0  0  0  0  0  0
    5.7555   -1.9991    0.0000 C   0  0  0  0  0  0  0  0  0  0  0  0
    8.0609   -0.6691    0.0000 C   0  0  0  0  0  0  0  0  0  0  0  0
    6.9082   -2.6601    0.0000 C   0  0  0  0  0  0  0  0  0  0  0  0
    4.6028   -2.6601    0.0000 O   0  0  0  0  0  0  0  0  0  0  0  0
    8.0609   -1.9991    0.0000 C   0  0  0  0  0  0  0  0  0  0  0  0
    3.4581   -1.9991    0.0000 C   0  0  0  0  0  0  0  0  0  0  0  0
    2.3054   -2.6601    0.0000 C   0  0  0  0  0  0  0  0  0  0  0  0
    3.4581   -0.6691    0.0000 C   0  0  0  0  0  0  0  0  0  0  0  0
    1.1527   -1.9991    0.0000 C   0  0  0  0  0  0  0  0  0  0  0  0
    2.3054   -0.0000    0.0000 C   0  0  0  0  0  0  0  0  0  0  0  0
    1.1527   -0.6691    0.0000 C   0  0  0  0  0  0  0  0  0  0  0  0
    0.0000   -0.0000    0.0000 O   0  0  0  0  0  0  0  0  0  0  0  0
  1  2  2  0  0  0  0 
  1  3  1  0  0  0  0 
  2  4  1  0  0  0  0 
  5  3  2  0  0  0  0 
  3  6  1  0  0  0  0 
  4  7  2  0  0  0  0 
  7  5  1  0  0  0  0 
  6  8  1  0  0  0  0 
  8  9  2  0  0  0  0 
  8 10  1  0  0  0  0 
  9 11  1  0  0  0  0 
 12 10  2  0  0  0  0 
 11 13  2  0  0  0  0 
 13 12  1  0  0  0  0 
 13 14  1  0  0  0  0 
M  END
> <Name>
Phenol, p-phenoxy- (8CI)

> <Source>
DSSTox2DMolFile

> <Tox>
4.575

> <CAS>
831-82-3

$$$$

  CDK

 15 15  0  0  0  0  0  0  0  0999 V2000
    0.0000   -4.6386    0.0000 C   0  0  0  0  0  0  0  0  0  0  0  0
    1.1527   -3.9839    0.0000 C   0  0  0  0  0  0  0  0  0  0  0  0
    1.1527   -2.6375    0.0000 C   0  0  0  0  0  0  0  0  0  0  0  0
    2.3239   -4.6386    0.0000 N   0  0  0  0  0  0  0  0  0  0  0  0
    3.4582   -3.9839    0.0000 C   0  0  0  0  0  0  0  0  0  0  0  0
    4.6109   -4.6386    0.0000 N   0  0  0  0  0  0  0  0  0  0  0  0
    3.4582   -2.6375    0.0000 N   0  0  0  0  0  0  0  0  0  0  0  0
    5.7637   -3.9839    0.0000 C   0  0  0  0  0  0  0  0  0  0  0  0
    4.6109   -1.9827    0.0000 C   0  0  0  0  0  0  0  0  0  0  0  0
    6.9164   -4.6386    0.0000 N   0  0  0  0  0  0  0  0  0  0  0  0
    5.7637   -2.6375    0.0000 N   0  0  0  0  0  0  0  0  0  0  0  0
    4.6109   -0.6548    0.0000 S   0  0  0  0  0  0  0  0  0  0  0  0
    8.0692   -3.9839    0.0000 C   0  0  0  0  0  0  0  0  0  0  0  0
    3.4582   -0.0000    0.0000 C   0  0  0  0  0  0  0  0  0  0  0  0
    9.2219   -4.6386    0.0000 C   0  0  0  0  0  0  0  0  0  0  0  0
  1  2  1  0  0  0  0 
  3  2  1  0  0  0  0 
  2  4  1  0  0  0  0 
  4  5  1  0  0  0  0 
  6  5  2  0  0  0  0 
  7  5  1  0  0  0  0 
  8  6  1  0  0  0  0 
  9  7  2  0  0  0  0 
 10  8  1  0  0  0  0 
 11  8  2  0  0  0  0 
 12  9  1  0  0  0  0 
 11  9  1  0  0  0  0 
 13 10  1  0  0  0  0 
 14 12  1  0  0  0  0 
 15 13  1  0  0  0  0 
M  END
> <Name>
1,3,5-Triazine-2,4-diamine, N-ethyl-N'-(1-methylethyl)-6-(methylthio)- (9CI)

> <Source>
DSSTox2DMolFile

> <Tox>
4.377

> <CAS>
834-12-8

$$$$

  CDK

  9  8  0  0  0  0  0  0  0  0999 V2000
    1.1530   -0.0000    0.0000 C   0  0  0  0  0  0  0  0  0  0  0  0
    1.1530   -1.3257    0.0000 C   0  0  0  0  0  0  0  0  0  0  0  0
    0.0000   -1.9954    0.0000 C   0  0  0  0  0  0  0  0  0  0  0  0
    2.2992   -1.9954    0.0000 C   0  0  0  0  0  0  0  0  0  0  0  0
    2.2992   -3.3210    0.0000 O   0  0  0  0  0  0  0  0  0  0  0  0
    3.4522   -1.3257    0.0000 O   0  0  0  0  0  0  0  0  0  0  0  0
    4.6053   -1.9954    0.0000 C   0  0  0  0  0  0  0  0  0  0  0  0
    5.7514   -1.3257    0.0000 C   0  0  0  0  0  0  0  0  0  0  0  0
    6.9045   -1.9954    0.0000 O   0  0  0  0  0  0  0  0  0  0  0  0
  1  2  2  0  0  0  0 
  2  3  1  0  0  0  0 
  2  4  1  0  0  0  0 
  4  5  2  0  0  0  0 
  4  6  1  0  0  0  0 
  6  7  1  0  0  0  0 
  7  8  1  0  0  0  0 
  8  9  1  0  0  0  0 
M  END
> <Name>
2-Propenoic acid, 2-methyl-, 2-hydroxyethyl ester

> <Source>
DSSTox2DMolFile

> <Tox>
2.758

> <CAS>
868-77-9

$$$$

  CDK

  6  5  0  0  0  0  0  0  0  0999 V2000
    1.6373   -0.0000    0.0000 O   0  0  0  0  0  0  0  0  0  0  0  0
    2.3034   -1.1517    0.0000 P   0  0  0  0  0  0  0  0  0  0  0  0
    2.9694   -2.3034    0.0000 O   0  0  0  0  0  0  0  0  0  0  0  0
    1.1517   -1.8178    0.0000 O   0  0  0  0  0  0  0  0  0  0  0  0
    4.2973   -2.3034    0.0000 C   0  0  0  0  0  0  0  0  0  0  0  0
    0.0000   -1.1517    0.0000 C   0  0  0  0  0  0  0  0  0  0  0  0
  1  2  2  0  0  0  0 
  2  3  1  0  0  0  0 
  2  4  1  0  0  0  0 
  3  5  1  0  0  0  0 
  4  6  1  0  0  0  0 
M  END
> <Name>
Phosphonic acid, dimethyl ester

> <Source>
DSSTox2DMolFile

> <Tox>
2.689

> <CAS>
868-85-9

$$$$

  CDK

 10 10  0  0  0  0  0  0  0  0999 V2000
    0.0000   -3.4531    0.0000 O   0  0  0  0  0  0  0  0  0  0  0  0
    0.6643   -2.3040    0.0000 C   0  0  0  0  0  0  0  0  0  0  0  0
    1.9929   -2.3040    0.0000 C   0  0  0  0  0  0  0  0  0  0  0  0
    2.6571   -1.1490    0.0000 C   0  0  0  0  0  0  0  0  0  0  0  0
    2.6571   -3.4531    0.0000 C   0  0  0  0  0  0  0  0  0  0  0  0
    1.9929   -0.0000    0.0000 Cl  0  0  0  0  0  0  0  0  0  0  0  0
    3.9917   -1.1490    0.0000 C   0  0  0  0  0  0  0  0  0  0  0  0
    3.9917   -3.4531    0.0000 C   0  0  0  0  0  0  0  0  0  0  0  0
    4.6560   -2.3040    0.0000 C   0  0  0  0  0  0  0  0  0  0  0  0
    5.9845   -2.3040    0.0000 Cl  0  0  0  0  0  0  0  0  0  0  0  0
  1  2  2  0  0  0  0 
  2  3  1  0  0  0  0 
  3  4  2  0  0  0  0 
  3  5  1  0  0  0  0 
  4  6  1  0  0  0  0 
  4  7  1  0  0  0  0 
  8  5  2  0  0  0  0 
  7  9  2  0  0  0  0 
  9  8  1  0  0  0  0 
  9 10  1  0  0  0  0 
M  END
> <Name>
Benzaldehyde, 2,4-dichloro-

> <Source>
DSSTox2DMolFile

> <Tox>
4.988

> <CAS>
874-42-0

$$$$

  CDK

 14 15  0  0  0  0  0  0  0  0999 V2000
    1.9964   -3.4570    0.0000 C   0  0  0  0  0  0  0  0  0  0  0  0
    0.6655   -3.4570    0.0000 C   0  0  0  0  0  0  0  0  0  0  0  0
    2.6619   -2.3075    0.0000 C   0  0  0  0  0  0  0  0  0  0  0  0
    0.0000   -2.3075    0.0000 C   0  0  0  0  0  0  0  0  0  0  0  0
    1.9964   -1.1581    0.0000 C   0  0  0  0  0  0  0  0  0  0  0  0
    3.9928   -2.3075    0.0000 S   0  0  0  0  0  0  0  0  0  0  0  0
    0.6655   -1.1581    0.0000 C   0  0  0  0  0  0  0  0  0  0  0  0
    4.6497   -1.1581    0.0000 S   0  0  0  0  0  0  0  0  0  0  0  0
    5.9806   -1.1581    0.0000 C   0  0  0  0  0  0  0  0  0  0  0  0
    6.6461   -0.0000    0.0000 C   0  0  0  0  0  0  0  0  0  0  0  0
    6.6461   -2.3075    0.0000 C   0  0  0  0  0  0  0  0  0  0  0  0
    7.9770   -0.0000    0.0000 C   0  0  0  0  0  0  0  0  0  0  0  0
    7.9770   -2.3075    0.0000 C   0  0  0  0  0  0  0  0  0  0  0  0
    8.6425   -1.1581    0.0000 C   0  0  0  0  0  0  0  0  0  0  0  0
  1  2  2  0  0  0  0 
  1  3  1  0  0  0  0 
  2  4  1  0  0  0  0 
  5  3  2  0  0  0  0 
  3  6  1  0  0  0  0 
  4  7  2  0  0  0  0 
  7  5  1  0  0  0  0 
  6  8  1  0  0  0  0 
  8  9  1  0  0  0  0 
  9 10  2  0  0  0  0 
  9 11  1  0  0  0  0 
 10 12  1  0  0  0  0 
 13 11  2  0  0  0  0 
 12 14  2  0  0  0  0 
 14 13  1  0  0  0  0 
M  END
> <Name>
Diphenyl disulphide

> <Source>
DSSTox2DMolFile

> <Tox>
6.298

> <CAS>
882-33-7

$$$$

  CDK

 10  9  0  0  0  0  0  0  0  0999 V2000
    1.9957   -1.1523    0.0000 C   0  0  0  0  0  0  0  0  0  0  0  0
    0.8435   -0.4886    0.0000 F   0  0  0  0  0  0  0  0  0  0  0  0
    2.6594   -0.0000    0.0000 F   0  0  0  0  0  0  0  0  0  0  0  0
    3.1480   -1.8160    0.0000 F   0  0  0  0  0  0  0  0  0  0  0  0
    1.3320   -2.3045    0.0000 C   0  0  0  0  0  0  0  0  0  0  0  0
    0.0000   -2.3045    0.0000 O   0  0  0  0  0  0  0  0  0  0  0  0
    1.9957   -3.4568    0.0000 C   0  0  0  0  0  0  0  0  0  0  0  0
    3.1480   -2.7931    0.0000 F   0  0  0  0  0  0  0  0  0  0  0  0
    2.6594   -4.6091    0.0000 F   0  0  0  0  0  0  0  0  0  0  0  0
    0.8435   -4.1205    0.0000 F   0  0  0  0  0  0  0  0  0  0  0  0
  1  2  1  0  0  0  0 
  1  3  1  0  0  0  0 
  1  4  1  0  0  0  0 
  1  5  1  0  0  0  0 
  5  6  1  0  0  0  0 
  5  7  1  0  0  0  0 
  7  8  1  0  0  0  0 
  7  9  1  0  0  0  0 
  7 10  1  0  0  0  0 
M  END
> <Name>
2-Propanol, 1,1,1,3,3,3-hexafluoro-

> <Source>
DSSTox2DMolFile

> <Tox>
2.838

> <CAS>
920-66-1

$$$$

  CDK

  7  6  0  0  0  0  0  0  0  0999 V2000
    0.0000   -1.3315    0.0000 C   0  0  0  0  0  0  0  0  0  0  0  0
    1.1518   -1.9950    0.0000 C   0  0  0  0  0  0  0  0  0  0  0  0
    2.3037   -1.3315    0.0000 C   0  0  0  0  0  0  0  0  0  0  0  0
    2.3037   -0.0000    0.0000 O   0  0  0  0  0  0  0  0  0  0  0  0
    3.4555   -1.9950    0.0000 C   0  0  0  0  0  0  0  0  0  0  0  0
    4.6073   -1.3315    0.0000 C   0  0  0  0  0  0  0  0  0  0  0  0
    4.6073   -0.0000    0.0000 C   0  0  0  0  0  0  0  0  0  0  0  0
  1  2  2  0  0  0  0 
  2  3  1  0  0  0  0 
  3  4  1  0  0  0  0 
  3  5  1  0  0  0  0 
  5  6  1  0  0  0  0 
  6  7  2  0  0  0  0 
M  END
> <Name>
Hexa-1,5-dien-3-ol

> <Source>
DSSTox2DMolFile

> <Tox>
3.411

> <CAS>
924-41-4

$$$$

  CDK

  5  4  0  0  0  0  0  0  0  0999 V2000
    3.3250   -0.0000    0.0000 C   0  0  0  0  0  0  0  0  0  0  0  0
    4.6568   -0.0000    0.0000 O   0  0  0  0  0  0  0  0  0  0  0  0
    2.6590   -1.1502    0.0000 C   0  0  0  0  0  0  0  0  0  0  0  0
    1.3319   -1.1502    0.0000 C   0  0  0  0  0  0  0  0  0  0  0  0
    0.0000   -1.1502    0.0000 C   0  0  0  0  0  0  0  0  0  0  0  0
  1  2  1  0  0  0  0 
  1  3  1  0  0  0  0 
  3  4  1  0  0  0  0 
  4  5  3  0  0  0  0 
M  END
> <Name>
But-3-yn-1-ol

> <Source>
DSSTox2DMolFile

> <Tox>
3.288

> <CAS>
927-74-2

$$$$

  CDK

  9  9  0  0  0  0  0  0  0  0999 V2000
    1.6771   -0.0000    0.0000 C   0  0  0  0  0  0  0  0  0  0  0  0
    1.2649   -1.2649    0.0000 N   0  0  0  0  0  0  0  0  0  0  0  0
    2.0449   -2.3399    0.0000 C   0  0  0  0  0  0  0  0  0  0  0  0
    0.0000   -1.6731    0.0000 C   0  0  0  0  0  0  0  0  0  0  0  0
    3.3745   -2.3399    0.0000 C   0  0  0  0  0  0  0  0  0  0  0  0
    1.2649   -3.4149    0.0000 C   0  0  0  0  0  0  0  0  0  0  0  0
    0.0000   -3.0067    0.0000 C   0  0  0  0  0  0  0  0  0  0  0  0
    4.0413   -3.4917    0.0000 O   0  0  0  0  0  0  0  0  0  0  0  0
    4.0413   -1.1881    0.0000 C   0  0  0  0  0  0  0  0  0  0  0  0
  1  2  1  0  0  0  0 
  2  3  1  0  0  0  0 
  2  4  1  0  0  0  0 
  3  5  1  0  0  0  0 
  3  6  2  0  0  0  0 
  7  4  2  0  0  0  0 
  5  8  2  0  0  0  0 
  5  9  1  0  0  0  0 
  6  7  1  0  0  0  0 
M  END
> <Name>
Ethanone, 1-(1-methyl-1H-pyrrol-2-yl)-

> <Source>
DSSTox2DMolFile

> <Tox>
2.895

> <CAS>
932-16-1

$$$$

  CDK

 11 11  0  0  0  0  0  0  0  0999 V2000
    1.6785    0.4311   -0.0016 C   0  0  0  0  0  0  0  0  0  0  0  0
    2.5447   -0.8076   -0.0046 C   0  0  0  0  0  0  0  0  0  0  0  0
    2.1715    1.5427   -0.0004 O   0  0  0  0  0  0  0  0  0  0  0  0
    0.1976    0.2327   -0.0009 C   0  0  0  0  0  0  0  0  0  0  0  0
    4.2659   -0.4027    0.0025 Cl  0  0  0  0  0  0  0  0  0  0  0  0
   -0.3751   -1.0430   -0.0007 C   0  0  0  0  0  0  0  0  0  0  0  0
   -0.6386    1.3546   -0.0005 C   0  0  0  0  0  0  0  0  0  0  0  0
   -1.7547   -1.1983   -0.0001 C   0  0  0  0  0  0  0  0  0  0  0  0
   -2.0205    1.2067    0.0000 C   0  0  0  0  0  0  0  0  0  0  0  0
   -2.5732   -0.0708    0.0002 C   0  0  0  0  0  0  0  0  0  0  0  0
   -4.2446   -0.2571    0.0009 Cl  0  0  0  0  0  0  0  0  0  0  0  0
  1  2  1  0  0  0  0 
  1  3  2  0  0  0  0 
  1  4  1  0  0  0  0 
  2  5  1  0  0  0  0 
  4  6  1  0  0  0  0 
  4  7  2  0  0  0  0 
  6  8  2  0  0  0  0 
  9  7  1  0  0  0  0 
  8 10  1  0  0  0  0 
 10  9  2  0  0  0  0 
 10 11  1  0  0  0  0 
M  END
> <Name>
2,4'-Dichloroacetophenone

> <Source>
DougDB3DMolFile

> <Tox>
4.208

> <CAS>
937-20-2

$$$$

  CDK

 12 13  0  0  0  0  0  0  0  0999 V2000
    6.6536   -1.1511    0.0000 N   0  0  0  0  0  0  0  0  0  0  0  0
    5.9883   -2.3022    0.0000 C   0  0  0  0  0  0  0  0  0  0  0  0
    5.9883   -0.0000    0.0000 C   0  0  0  0  0  0  0  0  0  0  0  0
    4.6575   -2.3022    0.0000 C   0  0  0  0  0  0  0  0  0  0  0  0
    4.6575   -0.0000    0.0000 C   0  0  0  0  0  0  0  0  0  0  0  0
    3.9922   -1.1511    0.0000 C   0  0  0  0  0  0  0  0  0  0  0  0
    2.6615   -1.1511    0.0000 C   0  0  0  0  0  0  0  0  0  0  0  0
    1.9961   -2.3022    0.0000 C   0  0  0  0  0  0  0  0  0  0  0  0
    1.9961   -0.0000    0.0000 C   0  0  0  0  0  0  0  0  0  0  0  0
    0.6654   -2.3022    0.0000 C   0  0  0  0  0  0  0  0  0  0  0  0
    0.6654   -0.0000    0.0000 C   0  0  0  0  0  0  0  0  0  0  0  0
    0.0000   -1.1511    0.0000 C   0  0  0  0  0  0  0  0  0  0  0  0
  1  2  2  0  0  0  0 
  1  3  1  0  0  0  0 
  2  4  1  0  0  0  0 
  5  3  2  0  0  0  0 
  4  6  2  0  0  0  0 
  6  5  1  0  0  0  0 
  6  7  1  0  0  0  0 
  7  8  2  0  0  0  0 
  7  9  1  0  0  0  0 
  8 10  1  0  0  0  0 
 11  9  2  0  0  0  0 
 10 12  2  0  0  0  0 
 12 11  1  0  0  0  0 
M  END
> <Name>
Pyridine, 4-phenyl-

> <Source>
DSSTox2DMolFile

> <Tox>
3.984

> <CAS>
939-23-1

$$$$

  CDK

 14 14  0  0  0  0  0  0  0  0999 V2000
    2.2580   -2.3071    0.0000 P   0  0  0  0  0  0  0  0  0  0  0  0
    3.5693   -2.6507    0.0000 S   0  0  0  0  0  0  0  0  0  0  0  0
    2.9522   -3.4431    0.0000 O   0  0  0  0  0  0  0  0  0  0  0  0
    1.1500   -2.9522    0.0000 C   0  0  0  0  0  0  0  0  0  0  0  0
    2.2580   -0.9817    0.0000 S   0  0  0  0  0  0  0  0  0  0  0  0
    4.6772   -1.9915    0.0000 C   0  0  0  0  0  0  0  0  0  0  0  0
    4.2775   -3.4431    0.0000 C   0  0  0  0  0  0  0  0  0  0  0  0
    0.0000   -2.3071    0.0000 C   0  0  0  0  0  0  0  0  0  0  0  0
    5.8623   -2.6507    0.0000 C   0  0  0  0  0  0  0  0  0  0  0  0
    4.6772   -0.6662    0.0000 C   0  0  0  0  0  0  0  0  0  0  0  0
    4.9437   -4.6422    0.0000 C   0  0  0  0  0  0  0  0  0  0  0  0
    7.0123   -1.9915    0.0000 C   0  0  0  0  0  0  0  0  0  0  0  0
    5.8623   -0.0000    0.0000 C   0  0  0  0  0  0  0  0  0  0  0  0
    7.0123   -0.6662    0.0000 C   0  0  0  0  0  0  0  0  0  0  0  0
  1  2  1  0  0  0  0 
  1  3  1  0  0  0  0 
  1  4  1  0  0  0  0 
  1  5  2  0  0  0  0 
  2  6  1  0  0  0  0 
  3  7  1  0  0  0  0 
  4  8  1  0  0  0  0 
  6  9  2  0  0  0  0 
  6 10  1  0  0  0  0 
  7 11  1  0  0  0  0 
  9 12  1  0  0  0  0 
 10 13  2  0  0  0  0 
 12 14  2  0  0  0  0 
 13 14  1  0  0  0  0 
M  END
> <Name>
Phosphonodithioic acid, ethyl-, O-ethyl S-phenyl ester

> <Source>
DSSTox2DMolFile

> <Tox>
5.354

> <CAS>
944-22-9

$$$$

  CDK

 14 15  0  0  0  0  0  0  0  0999 V2000
    5.7567   -1.3269    0.0000 C   0  0  0  0  0  0  0  0  0  0  0  0
    6.9108   -1.9903    0.0000 C   0  0  0  0  0  0  0  0  0  0  0  0
    4.6095   -1.9903    0.0000 C   0  0  0  0  0  0  0  0  0  0  0  0
    6.9108   -3.3241    0.0000 C   0  0  0  0  0  0  0  0  0  0  0  0
    4.6095   -3.3241    0.0000 C   0  0  0  0  0  0  0  0  0  0  0  0
    3.4554   -1.3269    0.0000 S   0  0  0  0  0  0  0  0  0  0  0  0
    5.7567   -3.9875    0.0000 C   0  0  0  0  0  0  0  0  0  0  0  0
    3.4554   -0.0000    0.0000 O   0  0  0  0  0  0  0  0  0  0  0  0
    2.3013   -1.9903    0.0000 C   0  0  0  0  0  0  0  0  0  0  0  0
    2.3013   -3.3241    0.0000 C   0  0  0  0  0  0  0  0  0  0  0  0
    1.1541   -1.3269    0.0000 C   0  0  0  0  0  0  0  0  0  0  0  0
    1.1541   -3.9875    0.0000 C   0  0  0  0  0  0  0  0  0  0  0  0
    0.0000   -1.9903    0.0000 C   0  0  0  0  0  0  0  0  0  0  0  0
    0.0000   -3.3241    0.0000 C   0  0  0  0  0  0  0  0  0  0  0  0
  1  2  2  0  0  0  0 
  1  3  1  0  0  0  0 
  2  4  1  0  0  0  0 
  3  5  2  0  0  0  0 
  3  6  1  0  0  0  0 
  4  7  2  0  0  0  0 
  7  5  1  0  0  0  0 
  6  8  2  0  0  0  0 
  6  9  1  0  0  0  0 
  9 10  2  0  0  0  0 
  9 11  1  0  0  0  0 
 10 12  1  0  0  0  0 
 11 13  2  0  0  0  0 
 12 14  2  0  0  0  0 
 14 13  1  0  0  0  0 
M  END
> <Name>
Phenyl sulfoxide (8CI)

> <Source>
DSSTox2DMolFile

> <Tox>
3.365

> <CAS>
945-51-7

$$$$

  CDK

 17 19  0  0  0  0  0  0  0  0999 V2000
    7.2207   -0.6668    0.0000 C   0  0  0  0  0  0  0  0  0  0  0  0
    8.3733   -0.0000    0.0000 C   0  0  0  0  0  0  0  0  0  0  0  0
    7.2207   -1.9909    0.0000 C   0  0  0  0  0  0  0  0  0  0  0  0
    9.5260   -0.6668    0.0000 C   0  0  0  0  0  0  0  0  0  0  0  0
    8.3733   -2.6577    0.0000 C   0  0  0  0  0  0  0  0  0  0  0  0
    6.0680   -2.6577    0.0000 C   0  0  0  0  0  0  0  0  0  0  0  0
    9.5260   -1.9909    0.0000 C   0  0  0  0  0  0  0  0  0  0  0  0
    5.9347   -3.9819    0.0000 C   0  0  0  0  0  0  0  0  0  0  0  0
    4.8582   -2.1148    0.0000 O   0  0  0  0  0  0  0  0  0  0  0  0
    4.6296   -4.2581    0.0000 C   0  0  0  0  0  0  0  0  0  0  0  0
    3.9628   -3.1055    0.0000 C   0  0  0  0  0  0  0  0  0  0  0  0
    2.6482   -2.9721    0.0000 C   0  0  0  0  0  0  0  0  0  0  0  0
    1.8671   -4.0390    0.0000 C   0  0  0  0  0  0  0  0  0  0  0  0
    2.1052   -1.7528    0.0000 C   0  0  0  0  0  0  0  0  0  0  0  0
    0.5430   -3.9057    0.0000 C   0  0  0  0  0  0  0  0  0  0  0  0
    0.7811   -1.6099    0.0000 C   0  0  0  0  0  0  0  0  0  0  0  0
    0.0000   -2.6863    0.0000 C   0  0  0  0  0  0  0  0  0  0  0  0
  1  2  2  0  0  0  0 
  1  3  1  0  0  0  0 
  2  4  1  0  0  0  0 
  5  3  2  0  0  0  0 
  3  6  1  0  0  0  0 
  4  7  2  0  0  0  0 
  7  5  1  0  0  0  0 
  6  8  2  0  0  0  0 
  6  9  1  0  0  0  0 
  8 10  1  0  0  0  0 
 11  9  1  0  0  0  0 
 10 11  2  0  0  0  0 
 11 12  1  0  0  0  0 
 12 13  2  0  0  0  0 
 12 14  1  0  0  0  0 
 13 15  1  0  0  0  0 
 16 14  2  0  0  0  0 
 15 17  2  0  0  0  0 
 17 16  1  0  0  0  0 
M  END
> <Name>
Furan, 2,5-diphenyl-

> <Source>
DSSTox2DMolFile

> <Tox>
6.644

> <CAS>
955-83-9

$$$$

  CDK

 18 19  0  0  0  0  0  0  0  0999 V2000
    3.4481   -1.9999    0.0000 C   0  0  0  0  0  0  0  0  0  0  0  0
    3.4481   -3.3447    0.0000 C   0  0  0  0  0  0  0  0  0  0  0  0
    2.2964   -1.3310    0.0000 N   0  0  0  0  0  0  0  0  0  0  0  0
    4.5998   -1.3172    0.0000 O   0  0  0  0  0  0  0  0  0  0  0  0
    4.5998   -4.0067    0.0000 C   0  0  0  0  0  0  0  0  0  0  0  0
    2.2964   -4.0067    0.0000 C   0  0  0  0  0  0  0  0  0  0  0  0
    2.2964   -0.0000    0.0000 C   0  0  0  0  0  0  0  0  0  0  0  0
    1.1517   -1.9999    0.0000 C   0  0  0  0  0  0  0  0  0  0  0  0
    4.5998   -5.3377    0.0000 C   0  0  0  0  0  0  0  0  0  0  0  0
    5.7445   -3.3447    0.0000 C   0  0  0  0  0  0  0  0  0  0  0  0
    2.2964   -5.3377    0.0000 C   0  0  0  0  0  0  0  0  0  0  0  0
    1.1517   -3.3447    0.0000 C   0  0  0  0  0  0  0  0  0  0  0  0
    5.7445   -6.0066    0.0000 C   0  0  0  0  0  0  0  0  0  0  0  0
    6.8962   -4.0067    0.0000 C   0  0  0  0  0  0  0  0  0  0  0  0
    1.1517   -6.0066    0.0000 C   0  0  0  0  0  0  0  0  0  0  0  0
    0.0000   -4.0067    0.0000 C   0  0  0  0  0  0  0  0  0  0  0  0
    6.8962   -5.3377    0.0000 C   0  0  0  0  0  0  0  0  0  0  0  0
    0.0000   -5.3377    0.0000 C   0  0  0  0  0  0  0  0  0  0  0  0
  1  2  1  0  0  0  0 
  1  3  1  0  0  0  0 
  1  4  2  0  0  0  0 
  2  5  1  0  0  0  0 
  2  6  1  0  0  0  0 
  3  7  1  0  0  0  0 
  3  8  1  0  0  0  0 
  5  9  1  0  0  0  0 
  5 10  2  0  0  0  0 
  6 11  2  0  0  0  0 
  6 12  1  0  0  0  0 
  9 13  2  0  0  0  0 
 10 14  1  0  0  0  0 
 11 15  1  0  0  0  0 
 12 16  2  0  0  0  0 
 13 17  1  0  0  0  0 
 14 17  2  0  0  0  0 
 15 18  2  0  0  0  0 
 16 18  1  0  0  0  0 
M  END
> <Name>
Benzeneacetamide, N,N-dimethyl-alpha-phenyl- (9CI)

> <Source>
DSSTox2DMolFile

> <Tox>
3.698

> <CAS>
957-51-7

$$$$

  CDK

  9  8  0  0  0  0  0  0  0  0999 V2000
    6.9045   -1.9954    0.0000 C   0  0  0  0  0  0  0  0  0  0  0  0
    5.7514   -1.3257    0.0000 C   0  0  0  0  0  0  0  0  0  0  0  0
    4.6053   -1.9954    0.0000 C   0  0  0  0  0  0  0  0  0  0  0  0
    4.6053   -3.3210    0.0000 O   0  0  0  0  0  0  0  0  0  0  0  0
    3.4522   -1.3257    0.0000 O   0  0  0  0  0  0  0  0  0  0  0  0
    2.2992   -1.9954    0.0000 C   0  0  0  0  0  0  0  0  0  0  0  0
    1.1530   -1.3257    0.0000 C   0  0  0  0  0  0  0  0  0  0  0  0
    0.0000   -1.9954    0.0000 O   0  0  0  0  0  0  0  0  0  0  0  0
    1.1530   -0.0000    0.0000 C   0  0  0  0  0  0  0  0  0  0  0  0
  1  2  2  0  0  0  0 
  2  3  1  0  0  0  0 
  3  4  2  0  0  0  0 
  3  5  1  0  0  0  0 
  5  6  1  0  0  0  0 
  6  7  1  0  0  0  0 
  7  8  1  0  0  0  0 
  7  9  1  0  0  0  0 
M  END
> <Name>
2-Propenoic acid, 2-hydroxypropyl ester (9CI)

> <Source>
DSSTox2DMolFile

> <Tox>
4.590

> <CAS>
999-61-1

$$$$

  CDK

 10  9  0  0  0  0  0  0  0  0999 V2000
    5.7567   -1.3423    0.0000 P   0  0  0  0  0  0  0  0  0  0  0  0
    5.0925   -0.1799    0.0000 O   0  0  0  0  0  0  0  0  0  0  0  0
    4.6151   -1.9927    0.0000 C   0  0  0  0  0  0  0  0  0  0  0  0
    6.4348   -2.4840    0.0000 O   0  0  0  0  0  0  0  0  0  0  0  0
    6.9191   -0.6573    0.0000 O   0  0  0  0  0  0  0  0  0  0  0  0
    3.4734   -1.3285    0.0000 N   0  0  0  0  0  0  0  0  0  0  0  0
    2.3179   -1.9927    0.0000 C   0  0  0  0  0  0  0  0  0  0  0  0
    1.1624   -1.3285    0.0000 C   0  0  0  0  0  0  0  0  0  0  0  0
    0.0000   -1.9650    0.0000 O   0  0  0  0  0  0  0  0  0  0  0  0
    1.1624   -0.0000    0.0000 O   0  0  0  0  0  0  0  0  0  0  0  0
  1  2  2  0  0  0  0 
  1  3  1  0  0  0  0 
  1  4  1  0  0  0  0 
  1  5  1  0  0  0  0 
  3  6  1  0  0  0  0 
  6  7  1  0  0  0  0 
  8  7  1  0  0  0  0 
  8  9  2  0  0  0  0 
  8 10  1  0  0  0  0 
M  END
> <Name>
Glycine, N-(phosphonomethyl)-

> <Source>
DSSTox2DMolFile

> <Tox>
4.571

> <CAS>
1071-83-6

$$$$

  CDK

  8  8  0  0  0  0  0  0  0  0999 V2000
    1.9950   -2.3036    0.0000 N   0  0  0  0  0  0  0  0  0  0  0  0
    1.3300   -1.1545    0.0000 C   0  0  0  0  0  0  0  0  0  0  0  0
    3.3250   -2.3036    0.0000 C   0  0  0  0  0  0  0  0  0  0  0  0
    0.0000   -1.1545    0.0000 N   0  0  0  0  0  0  0  0  0  0  0  0
    1.9950   -0.0000    0.0000 C   0  0  0  0  0  0  0  0  0  0  0  0
    3.9900   -1.1545    0.0000 C   0  0  0  0  0  0  0  0  0  0  0  0
    3.3250   -0.0000    0.0000 C   0  0  0  0  0  0  0  0  0  0  0  0
    5.3201   -1.1545    0.0000 Br  0  0  0  0  0  0  0  0  0  0  0  0
  1  2  2  0  0  0  0 
  1  3  1  0  0  0  0 
  2  4  1  0  0  0  0 
  2  5  1  0  0  0  0 
  6  3  2  0  0  0  0 
  5  7  2  0  0  0  0 
  7  6  1  0  0  0  0 
  6  8  1  0  0  0  0 
M  END
> <Name>
5-Bromo-2-pyridylamine

> <Source>
DSSTox2DMolFile

> <Tox>
2.990

> <CAS>
1072-97-5

$$$$

  CDK

 15 15  0  0  0  0  0  0  0  0999 V2000
    0.0000   -2.6681    0.0000 C   0  0  0  0  0  0  0  0  0  0  0  0
    0.6688   -3.8168    0.0000 C   0  0  0  0  0  0  0  0  0  0  0  0
    1.9993   -3.8168    0.0000 O   0  0  0  0  0  0  0  0  0  0  0  0
    2.6608   -2.6681    0.0000 P   0  0  0  0  0  0  0  0  0  0  0  0
    3.3297   -1.5122    0.0000 O   0  0  0  0  0  0  0  0  0  0  0  0
    3.8168   -3.3297    0.0000 C   0  0  0  0  0  0  0  0  0  0  0  0
    1.5122   -1.9993    0.0000 O   0  0  0  0  0  0  0  0  0  0  0  0
    4.9655   -2.6681    0.0000 C   0  0  0  0  0  0  0  0  0  0  0  0
    1.5122   -0.6688    0.0000 C   0  0  0  0  0  0  0  0  0  0  0  0
    4.9655   -1.3377    0.0000 C   0  0  0  0  0  0  0  0  0  0  0  0
    6.1214   -3.3297    0.0000 C   0  0  0  0  0  0  0  0  0  0  0  0
    2.6608   -0.0000    0.0000 C   0  0  0  0  0  0  0  0  0  0  0  0
    6.1214   -0.6688    0.0000 C   0  0  0  0  0  0  0  0  0  0  0  0
    7.2701   -2.6681    0.0000 C   0  0  0  0  0  0  0  0  0  0  0  0
    7.2701   -1.3377    0.0000 C   0  0  0  0  0  0  0  0  0  0  0  0
  1  2  1  0  0  0  0 
  2  3  1  0  0  0  0 
  3  4  1  0  0  0  0 
  4  5  2  0  0  0  0 
  4  6  1  0  0  0  0 
  4  7  1  0  0  0  0 
  6  8  1  0  0  0  0 
  7  9  1  0  0  0  0 
  8 10  2  0  0  0  0 
  8 11  1  0  0  0  0 
  9 12  1  0  0  0  0 
 10 13  1  0  0  0  0 
 14 11  2  0  0  0  0 
 13 15  2  0  0  0  0 
 15 14  1  0  0  0  0 
M  END
> <Name>
Phosphonic acid, (phenylmethyl)-, diethyl ester

> <Source>
DSSTox2DMolFile

> <Tox>
2.832

> <CAS>
1080-32-6

$$$$

  CDK

  7  6  0  0  0  0  0  0  0  0999 V2000
    0.0008    0.0788    0.2755 P   0  0  0  0  0  0  0  0  0  0  0  0
   -1.5781   -0.5512    0.2755 O   0  0  0  0  0  0  0  0  0  0  0  0
    0.3223   -0.2898    1.8703 O   0  0  0  0  0  0  0  0  0  0  0  0
    0.7184   -1.2760   -0.4758 O   0  0  0  0  0  0  0  0  0  0  0  0
    0.3847    1.8634   -0.3388 S   0  0  0  0  0  0  0  0  0  0  0  0
   -2.3428   -0.5474   -0.8860 C   0  0  0  0  0  0  0  0  0  0  0  0
    2.0677   -1.2564   -0.8079 C   0  0  0  0  0  0  0  0  0  0  0  0
  1  2  1  0  0  0  0 
  1  3  1  0  0  0  0 
  1  4  1  0  0  0  0 
  1  5  2  0  0  0  0 
  2  6  1  0  0  0  0 
  4  7  1  0  0  0  0 
M  END
> <Name>
Phosphorothioic acid, O,O-dimethyl ester

> <Source>
DougDB3DMolFile

> <Tox>
3.524

> <CAS>
1112-38-5

$$$$

  CDK

  9  9  0  0  0  0  0  0  0  0999 V2000
    4.6539   -1.1542    0.0000 N   0  0  0  0  0  0  0  0  0  0  0  0
    3.9884   -2.3037    0.0000 C   0  0  0  0  0  0  0  0  0  0  0  0
    3.9884   -0.0000    0.0000 C   0  0  0  0  0  0  0  0  0  0  0  0
    2.6574   -2.3037    0.0000 C   0  0  0  0  0  0  0  0  0  0  0  0
    2.6574   -0.0000    0.0000 C   0  0  0  0  0  0  0  0  0  0  0  0
    1.9965   -1.1542    0.0000 C   0  0  0  0  0  0  0  0  0  0  0  0
    0.6655   -1.1542    0.0000 C   0  0  0  0  0  0  0  0  0  0  0  0
    0.0000   -2.3037    0.0000 O   0  0  0  0  0  0  0  0  0  0  0  0
    0.0000   -0.0000    0.0000 C   0  0  0  0  0  0  0  0  0  0  0  0
  1  2  2  0  0  0  0 
  1  3  1  0  0  0  0 
  2  4  1  0  0  0  0 
  5  3  2  0  0  0  0 
  4  6  2  0  0  0  0 
  6  5  1  0  0  0  0 
  6  7  1  0  0  0  0 
  7  8  2  0  0  0  0 
  7  9  1  0  0  0  0 
M  END
> <Name>
Ethanone, 1-(4-pyridinyl)-

> <Source>
DSSTox2DMolFile

> <Tox>
2.858

> <CAS>
1122-54-9

$$$$

  CDK

 11 11  0  0  0  0  0  0  0  0999 V2000
    3.3269   -3.4525    0.0000 C   0  0  0  0  0  0  0  0  0  0  0  0
    1.9925   -3.4525    0.0000 C   0  0  0  0  0  0  0  0  0  0  0  0
    3.9910   -2.3037    0.0000 C   0  0  0  0  0  0  0  0  0  0  0  0
    1.3283   -2.3037    0.0000 C   0  0  0  0  0  0  0  0  0  0  0  0
    3.3269   -1.1488    0.0000 C   0  0  0  0  0  0  0  0  0  0  0  0
    5.3194   -2.3037    0.0000 C   0  0  0  0  0  0  0  0  0  0  0  0
    0.0000   -2.3037    0.0000 Cl  0  0  0  0  0  0  0  0  0  0  0  0
    1.9925   -1.1488    0.0000 C   0  0  0  0  0  0  0  0  0  0  0  0
    5.9835   -3.4525    0.0000 O   0  0  0  0  0  0  0  0  0  0  0  0
    5.9835   -1.1488    0.0000 O   0  0  0  0  0  0  0  0  0  0  0  0
    5.3194   -0.0000    0.0000 C   0  0  0  0  0  0  0  0  0  0  0  0
  1  2  2  0  0  0  0 
  1  3  1  0  0  0  0 
  2  4  1  0  0  0  0 
  5  3  2  0  0  0  0 
  3  6  1  0  0  0  0 
  4  7  1  0  0  0  0 
  4  8  2  0  0  0  0 
  8  5  1  0  0  0  0 
  6  9  2  0  0  0  0 
  6 10  1  0  0  0  0 
 10 11  1  0  0  0  0 
M  END
> <Name>
Benzoic acid, p-chloro-, methyl ester (8CI)

> <Source>
DSSTox2DMolFile

> <Tox>
4.156

> <CAS>
1126-46-1

$$$$

  CDK

 11 11  0  0  0  0  0  0  0  0999 V2000
    0.0000   -2.6619    0.0000 C   0  0  0  0  0  0  0  0  0  0  0  0
    1.1535   -2.0004    0.0000 C   0  0  0  0  0  0  0  0  0  0  0  0
    2.3070   -2.6619    0.0000 C   0  0  0  0  0  0  0  0  0  0  0  0
    3.4605   -2.0004    0.0000 C   0  0  0  0  0  0  0  0  0  0  0  0
    4.6059   -2.6619    0.0000 O   0  0  0  0  0  0  0  0  0  0  0  0
    5.7594   -2.0004    0.0000 C   0  0  0  0  0  0  0  0  0  0  0  0
    5.7594   -0.6695    0.0000 C   0  0  0  0  0  0  0  0  0  0  0  0
    6.9128   -2.6619    0.0000 C   0  0  0  0  0  0  0  0  0  0  0  0
    6.9128   -0.0000    0.0000 C   0  0  0  0  0  0  0  0  0  0  0  0
    8.0663   -2.0004    0.0000 C   0  0  0  0  0  0  0  0  0  0  0  0
    8.0663   -0.6695    0.0000 C   0  0  0  0  0  0  0  0  0  0  0  0
  1  2  1  0  0  0  0 
  2  3  1  0  0  0  0 
  3  4  1  0  0  0  0 
  4  5  1  0  0  0  0 
  5  6  1  0  0  0  0 
  6  7  2  0  0  0  0 
  6  8  1  0  0  0  0 
  7  9  1  0  0  0  0 
 10  8  2  0  0  0  0 
  9 11  2  0  0  0  0 
 11 10  1  0  0  0  0 
M  END
> <Name>
n-Butyl phenyl ether

> <Source>
DSSTox2DMolFile

> <Tox>
4.416

> <CAS>
1126-79-0

$$$$

  CDK

 10 10  0  0  0  0  0  0  0  0999 V2000
    2.3091   -2.6603    0.0000 C   0  0  0  0  0  0  0  0  0  0  0  0
    2.3091   -1.3301    0.0000 C   0  0  0  0  0  0  0  0  0  0  0  0
    3.4637   -3.3147    0.0000 C   0  0  0  0  0  0  0  0  0  0  0  0
    1.1546   -3.3147    0.0000 C   0  0  0  0  0  0  0  0  0  0  0  0
    2.3091   -0.0000    0.0000 N   0  0  0  0  0  0  0  0  0  0  0  0
    4.6129   -2.6603    0.0000 Cl  0  0  0  0  0  0  0  0  0  0  0  0
    3.4637   -4.6449    0.0000 C   0  0  0  0  0  0  0  0  0  0  0  0
    0.0000   -2.6603    0.0000 Cl  0  0  0  0  0  0  0  0  0  0  0  0
    1.1546   -4.6449    0.0000 C   0  0  0  0  0  0  0  0  0  0  0  0
    2.3091   -5.3206    0.0000 C   0  0  0  0  0  0  0  0  0  0  0  0
  1  2  1  0  0  0  0 
  1  3  1  0  0  0  0 
  1  4  2  0  0  0  0 
  2  5  3  0  0  0  0 
  3  6  1  0  0  0  0 
  3  7  2  0  0  0  0 
  4  8  1  0  0  0  0 
  4  9  1  0  0  0  0 
 10  7  1  0  0  0  0 
 10  9  2  0  0  0  0 
M  END
> <Name>
Benzonitrile, 2,6-dichloro-

> <Source>
DSSTox2DMolFile

> <Tox>
4.420

> <CAS>
1194-65-6

$$$$

  CDK

 14 14  0  0  0  0  0  0  0  0999 V2000
    2.6572   -4.6083    0.0000 C   0  0  0  0  0  0  0  0  0  0  0  0
    1.9929   -3.4532    0.0000 C   0  0  0  0  0  0  0  0  0  0  0  0
    3.9918   -4.6083    0.0000 C   0  0  0  0  0  0  0  0  0  0  0  0
    0.6643   -3.4532    0.0000 C   0  0  0  0  0  0  0  0  0  0  0  0
    2.6572   -2.3041    0.0000 C   0  0  0  0  0  0  0  0  0  0  0  0
    4.6561   -3.4532    0.0000 C   0  0  0  0  0  0  0  0  0  0  0  0
    4.6561   -5.7573    0.0000 O   0  0  0  0  0  0  0  0  0  0  0  0
    0.0000   -2.3041    0.0000 O   0  0  0  0  0  0  0  0  0  0  0  0
    0.0000   -4.6083    0.0000 C   0  0  0  0  0  0  0  0  0  0  0  0
    1.9929   -1.1491    0.0000 O   0  0  0  0  0  0  0  0  0  0  0  0
    3.9918   -2.3041    0.0000 C   0  0  0  0  0  0  0  0  0  0  0  0
    5.9848   -5.7573    0.0000 C   0  0  0  0  0  0  0  0  0  0  0  0
    0.6643   -5.7573    0.0000 Br  0  0  0  0  0  0  0  0  0  0  0  0
    2.6572   -0.0000    0.0000 C   0  0  0  0  0  0  0  0  0  0  0  0
  1  2  2  0  0  0  0 
  1  3  1  0  0  0  0 
  2  4  1  0  0  0  0 
  2  5  1  0  0  0  0 
  6  3  2  0  0  0  0 
  3  7  1  0  0  0  0 
  4  8  2  0  0  0  0 
  4  9  1  0  0  0  0 
  5 10  1  0  0  0  0 
  5 11  2  0  0  0  0 
 11  6  1  0  0  0  0 
  7 12  1  0  0  0  0 
  9 13  1  0  0  0  0 
 10 14  1  0  0  0  0 
M  END
> <Name>
Ethanone, 2-bromo-1-(2,5-dimethoxyphenyl)-

> <Source>
DSSTox2DMolFile

> <Tox>
6.648

> <CAS>
1204-21-3

$$$$

  CDK

 11 10  0  0  0  0  0  0  0  0999 V2000
    2.6950   -0.0000    0.0000 C   0  0  0  0  0  0  0  0  0  0  0  0
    3.3348   -1.1663    0.0000 C   0  0  0  0  0  0  0  0  0  0  0  0
    4.6654   -1.2003    0.0000 C   0  0  0  0  0  0  0  0  0  0  0  0
    2.6384   -2.3044    0.0000 O   0  0  0  0  0  0  0  0  0  0  0  0
    1.3362   -2.3270    0.0000 P   0  0  0  0  0  0  0  0  0  0  0  0
    1.3362   -3.6632    0.0000 O   0  0  0  0  0  0  0  0  0  0  0  0
    1.3362   -0.9965    0.0000 O   0  0  0  0  0  0  0  0  0  0  0  0
    0.0000   -2.3270    0.0000 C   0  0  0  0  0  0  0  0  0  0  0  0
    2.4856   -4.3313    0.0000 C   0  0  0  0  0  0  0  0  0  0  0  0
    3.6462   -3.6632    0.0000 C   0  0  0  0  0  0  0  0  0  0  0  0
    2.4856   -5.6618    0.0000 C   0  0  0  0  0  0  0  0  0  0  0  0
  1  2  1  0  0  0  0 
  3  2  1  0  0  0  0 
  2  4  1  0  0  0  0 
  4  5  1  0  0  0  0 
  6  5  1  0  0  0  0 
  7  5  2  0  0  0  0 
  5  8  1  0  0  0  0 
  9  6  1  0  0  0  0 
 10  9  1  0  0  0  0 
 11  9  1  0  0  0  0 
M  END
> <Name>
Phosphonic acid, methyl-, bis(1-methylethyl) ester

> <Source>
DSSTox2DMolFile

> <Tox>
2.451

> <CAS>
1445-75-6

$$$$

  CDK

 15 17  0  0  0  0  0  0  0  0999 V2000
    6.2121   -3.9695    0.0000 C   0  0  0  0  0  0  0  0  0  0  0  0
    5.4293   -5.0442    0.0000 C   0  0  0  0  0  0  0  0  0  0  0  0
    5.6716   -2.7519    0.0000 C   0  0  0  0  0  0  0  0  0  0  0  0
    4.1062   -4.9075    0.0000 C   0  0  0  0  0  0  0  0  0  0  0  0
    4.3484   -2.6153    0.0000 C   0  0  0  0  0  0  0  0  0  0  0  0
    3.5657   -3.6900    0.0000 C   0  0  0  0  0  0  0  0  0  0  0  0
    3.5657   -1.5406    0.0000 N   0  0  0  0  0  0  0  0  0  0  0  0
    2.3047   -3.2800    0.0000 C   0  0  0  0  0  0  0  0  0  0  0  0
    2.3047   -1.9506    0.0000 C   0  0  0  0  0  0  0  0  0  0  0  0
    3.9757   -0.2733    0.0000 C   0  0  0  0  0  0  0  0  0  0  0  0
    1.1492   -3.9447    0.0000 C   0  0  0  0  0  0  0  0  0  0  0  0
    1.1492   -1.2859    0.0000 C   0  0  0  0  0  0  0  0  0  0  0  0
    5.2803   -0.0000    0.0000 C   0  0  0  0  0  0  0  0  0  0  0  0
    0.0000   -3.2800    0.0000 C   0  0  0  0  0  0  0  0  0  0  0  0
    0.0000   -1.9506    0.0000 C   0  0  0  0  0  0  0  0  0  0  0  0
  1  2  2  0  0  0  0 
  1  3  1  0  0  0  0 
  2  4  1  0  0  0  0 
  3  5  2  0  0  0  0 
  4  6  2  0  0  0  0 
  6  5  1  0  0  0  0 
  5  7  1  0  0  0  0 
  6  8  1  0  0  0  0 
  7  9  1  0  0  0  0 
  7 10  1  0  0  0  0 
  8 11  2  0  0  0  0 
  8  9  1  0  0  0  0 
  9 12  2  0  0  0  0 
 10 13  2  0  0  0  0 
 11 14  1  0  0  0  0 
 12 15  1  0  0  0  0 
 14 15  2  0  0  0  0 
M  END
> <Name>
9H-Carbazole, 9-ethenyl-

> <Source>
DSSTox2DMolFile

> <Tox>
7.809

> <CAS>
1484-13-5

$$$$

  CDK

 15 16  0  0  0  0  0  0  0  0999 V2000
    2.3040   -2.6542    0.0000 C   0  0  0  0  0  0  0  0  0  0  0  0
    1.1520   -1.9906    0.0000 C   0  0  0  0  0  0  0  0  0  0  0  0
    3.4560   -1.9906    0.0000 C   0  0  0  0  0  0  0  0  0  0  0  0
    0.0000   -2.6542    0.0000 N   0  0  0  0  0  0  0  0  0  0  0  0
    1.1520   -0.6635    0.0000 C   0  0  0  0  0  0  0  0  0  0  0  0
    3.4560   -0.6635    0.0000 C   0  0  0  0  0  0  0  0  0  0  0  0
    4.6080   -2.6542    0.0000 O   0  0  0  0  0  0  0  0  0  0  0  0
    2.3040   -0.0000    0.0000 C   0  0  0  0  0  0  0  0  0  0  0  0
    5.7600   -1.9906    0.0000 C   0  0  0  0  0  0  0  0  0  0  0  0
    6.9120   -2.6542    0.0000 C   0  0  0  0  0  0  0  0  0  0  0  0
    8.0640   -1.9906    0.0000 C   0  0  0  0  0  0  0  0  0  0  0  0
    6.9120   -3.9905    0.0000 C   0  0  0  0  0  0  0  0  0  0  0  0
    9.2160   -2.6542    0.0000 C   0  0  0  0  0  0  0  0  0  0  0  0
    8.0640   -4.6541    0.0000 C   0  0  0  0  0  0  0  0  0  0  0  0
    9.2160   -3.9905    0.0000 C   0  0  0  0  0  0  0  0  0  0  0  0
  1  2  2  0  0  0  0 
  1  3  1  0  0  0  0 
  2  4  1  0  0  0  0 
  2  5  1  0  0  0  0 
  6  3  2  0  0  0  0 
  3  7  1  0  0  0  0 
  5  8  2  0  0  0  0 
  8  6  1  0  0  0  0 
  7  9  1  0  0  0  0 
  9 10  1  0  0  0  0 
 10 11  2  0  0  0  0 
 10 12  1  0  0  0  0 
 11 13  1  0  0  0  0 
 14 12  2  0  0  0  0 
 13 15  2  0  0  0  0 
 15 14  1  0  0  0  0 
M  END
> <Name>
Benzenamine, 3-(phenylmethoxy)-

> <Source>
DSSTox2DMolFile

> <Tox>
4.338

> <CAS>
1484-26-0

$$$$

  CDK

 16 17  0  0  0  0  0  0  0  0999 V2000
    1.1508   -0.0000    0.0000 O   0  0  0  0  0  0  0  0  0  0  0  0
    1.1508   -1.3238    0.0000 C   0  0  0  0  0  0  0  0  0  0  0  0
    0.0000   -1.9890    0.0000 N   0  0  0  0  0  0  0  0  0  0  0  0
    2.3017   -1.9890    0.0000 O   0  0  0  0  0  0  0  0  0  0  0  0
    0.0000   -3.3195    0.0000 C   0  0  0  0  0  0  0  0  0  0  0  0
    2.3017   -3.3195    0.0000 C   0  0  0  0  0  0  0  0  0  0  0  0
    1.1508   -3.9847    0.0000 C   0  0  0  0  0  0  0  0  0  0  0  0
    3.4525   -3.9847    0.0000 C   0  0  0  0  0  0  0  0  0  0  0  0
    1.1508   -5.3151    0.0000 C   0  0  0  0  0  0  0  0  0  0  0  0
    3.4525   -5.3151    0.0000 C   0  0  0  0  0  0  0  0  0  0  0  0
    4.7231   -3.5722    0.0000 O   0  0  0  0  0  0  0  0  0  0  0  0
    2.3017   -5.9803    0.0000 C   0  0  0  0  0  0  0  0  0  0  0  0
    4.7231   -5.7276    0.0000 C   0  0  0  0  0  0  0  0  0  0  0  0
    5.5014   -4.6499    0.0000 C   0  0  0  0  0  0  0  0  0  0  0  0
    6.6522   -5.3151    0.0000 C   0  0  0  0  0  0  0  0  0  0  0  0
    6.6522   -3.9847    0.0000 C   0  0  0  0  0  0  0  0  0  0  0  0
  1  2  2  0  0  0  0 
  2  3  1  0  0  0  0 
  2  4  1  0  0  0  0 
  3  5  1  0  0  0  0 
  4  6  1  0  0  0  0 
  6  7  2  0  0  0  0 
  6  8  1  0  0  0  0 
  7  9  1  0  0  0  0 
 10  8  2  0  0  0  0 
  8 11  1  0  0  0  0 
  9 12  2  0  0  0  0 
 12 10  1  0  0  0  0 
 10 13  1  0  0  0  0 
 11 14  1  0  0  0  0 
 13 14  1  0  0  0  0 
 14 15  1  0  0  0  0 
 14 16  1  0  0  0  0 
M  END
> <Name>
Carbamic acid, methyl-, 2,3-dihydro-2,2-dimethyl-7-benzofuranyl ester

> <Source>
DSSTox2DMolFile

> <Tox>
5.404

> <CAS>
1563-66-2

$$$$

  CDK

 23 23  0  0  0  0  0  0  0  0999 V2000
    5.7594   -0.0000    0.0000 O   0  0  0  0  0  0  0  0  0  0  0  0
    5.7594   -1.3362    0.0000 N   0  0  0  0  0  0  0  0  0  0  0  0
    4.6075   -1.9997    0.0000 C   0  0  0  0  0  0  0  0  0  0  0  0
    6.9113   -1.9997    0.0000 O   0  0  0  0  0  0  0  0  0  0  0  0
    4.6075   -3.3266    0.0000 C   0  0  0  0  0  0  0  0  0  0  0  0
    3.4557   -1.3362    0.0000 C   0  0  0  0  0  0  0  0  0  0  0  0
    3.4557   -3.9901    0.0000 C   0  0  0  0  0  0  0  0  0  0  0  0
    5.7594   -3.9901    0.0000 N   0  0  0  0  0  0  0  0  0  0  0  0
    2.3038   -1.9997    0.0000 C   0  0  0  0  0  0  0  0  0  0  0  0
    2.3038   -3.3266    0.0000 C   0  0  0  0  0  0  0  0  0  0  0  0
    3.4557   -5.3263    0.0000 N   0  0  0  0  0  0  0  0  0  0  0  0
    6.9113   -3.3266    0.0000 C   0  0  0  0  0  0  0  0  0  0  0  0
    5.7594   -5.3263    0.0000 C   0  0  0  0  0  0  0  0  0  0  0  0
    1.1519   -1.3362    0.0000 C   0  0  0  0  0  0  0  0  0  0  0  0
    4.6075   -5.9898    0.0000 O   0  0  0  0  0  0  0  0  0  0  0  0
    2.3038   -5.9898    0.0000 O   0  0  0  0  0  0  0  0  0  0  0  0
    8.0632   -3.9901    0.0000 C   0  0  0  0  0  0  0  0  0  0  0  0
    6.9113   -5.9898    0.0000 C   0  0  0  0  0  0  0  0  0  0  0  0
    1.8154   -0.1843    0.0000 F   0  0  0  0  0  0  0  0  0  0  0  0
    0.4884   -2.4881    0.0000 F   0  0  0  0  0  0  0  0  0  0  0  0
    0.0000   -0.6727    0.0000 F   0  0  0  0  0  0  0  0  0  0  0  0
    9.2151   -3.3266    0.0000 C   0  0  0  0  0  0  0  0  0  0  0  0
    8.0632   -5.3263    0.0000 C   0  0  0  0  0  0  0  0  0  0  0  0
  1  2  2  0  0  0  0 
  2  3  1  0  0  0  0 
  2  4  1  0  0  0  0 
  3  5  2  0  0  0  0 
  3  6  1  0  0  0  0 
  5  7  1  0  0  0  0 
  5  8  1  0  0  0  0 
  9  6  2  0  0  0  0 
  7 10  2  0  0  0  0 
  7 11  1  0  0  0  0 
  8 12  1  0  0  0  0 
  8 13  1  0  0  0  0 
 10  9  1  0  0  0  0 
  9 14  1  0  0  0  0 
 11 15  2  0  0  0  0 
 11 16  1  0  0  0  0 
 12 17  1  0  0  0  0 
 13 18  1  0  0  0  0 
 14 19  1  0  0  0  0 
 14 20  1  0  0  0  0 
 14 21  1  0  0  0  0 
 17 22  1  0  0  0  0 
 18 23  1  0  0  0  0 
M  CHG  1   2   1
M  CHG  1   4  -1
M  CHG  1  11   1
M  CHG  1  16  -1
M  END
> <Name>
p-Toluidine, alpha,alpha,alpha-trifluoro-2,6-dinitro-N,N-dipropyl-

> <Source>
DSSTox2DMolFile

> <Tox>
6.504

> <CAS>
1582-09-8

$$$$

  CDK

 10  9  0  0  0  0  0  0  0  0999 V2000
    0.0000   -0.6638    0.0000 C   0  0  0  0  0  0  0  0  0  0  0  0
    1.1513   -0.0000    0.0000 C   0  0  0  0  0  0  0  0  0  0  0  0
    2.3027   -0.6638    0.0000 C   0  0  0  0  0  0  0  0  0  0  0  0
    3.4540   -0.0000    0.0000 C   0  0  0  0  0  0  0  0  0  0  0  0
    4.6053   -0.6638    0.0000 C   0  0  0  0  0  0  0  0  0  0  0  0
    5.7670   -0.0000    0.0000 C   0  0  0  0  0  0  0  0  0  0  0  0
    6.9184   -0.6638    0.0000 C   0  0  0  0  0  0  0  0  0  0  0  0
    8.0697   -0.0000    0.0000 C   0  0  0  0  0  0  0  0  0  0  0  0
    9.2210   -0.6638    0.0000 C   0  0  0  0  0  0  0  0  0  0  0  0
   10.3724   -0.0000    0.0000 C   0  0  0  0  0  0  0  0  0  0  0  0
  1  2  2  0  0  0  0 
  2  3  1  0  0  0  0 
  3  4  1  0  0  0  0 
  4  5  1  0  0  0  0 
  5  6  1  0  0  0  0 
  6  7  1  0  0  0  0 
  7  8  1  0  0  0  0 
  8  9  1  0  0  0  0 
  9 10  2  0  0  0  0 
M  END
> <Name>
1,9-Decadiene

> <Source>
DSSTox2DMolFile

> <Tox>
5.678

> <CAS>
1647-16-1

$$$$

  CDK

  9  8  0  0  0  0  0  0  0  0999 V2000
    0.0000    0.4621   -0.0004 O   0  0  0  0  0  0  0  0  0  0  0  0
    1.1846   -0.3206   -0.0038 C   0  0  0  0  0  0  0  0  0  0  0  0
   -1.1844   -0.3207   -0.0039 C   0  0  0  0  0  0  0  0  0  0  0  0
    2.3489    0.6750    0.0006 C   0  0  0  0  0  0  0  0  0  0  0  0
   -2.3488    0.6748    0.0000 C   0  0  0  0  0  0  0  0  0  0  0  0
    3.6115   -0.0321    0.0016 C   0  0  0  0  0  0  0  0  0  0  0  0
   -3.6114   -0.0325    0.0016 C   0  0  0  0  0  0  0  0  0  0  0  0
    4.6258   -0.5927    0.0025 N   0  0  0  0  0  0  0  0  0  0  0  0
   -4.6262   -0.5922    0.0029 N   0  0  0  0  0  0  0  0  0  0  0  0
  1  2  1  0  0  0  0 
  1  3  1  0  0  0  0 
  4  2  1  0  0  0  0 
  5  3  1  0  0  0  0 
  6  4  1  0  0  0  0 
  7  5  1  0  0  0  0 
  6  8  3  0  0  0  0 
  7  9  3  0  0  0  0 
M  END
> <Name>
Propanenitrile, 3,3'-oxybis-

> <Source>
DougDB3DMolFile

> <Tox>
1.520

> <CAS>
1656-48-0

$$$$

  CDK

 22 24  0  0  0  0  0  0  0  0999 V2000
    3.1875   -4.1191    0.0000 C   0  0  0  0  0  0  0  0  0  0  0  0
    2.0002   -3.4341    0.0000 C   0  0  0  0  0  0  0  0  0  0  0  0
    4.3748   -3.4341    0.0000 C   0  0  0  0  0  0  0  0  0  0  0  0
    3.1875   -5.4891    0.0000 C   0  0  0  0  0  0  0  0  0  0  0  0
    3.1875   -2.9318    0.0000 C   0  0  0  0  0  0  0  0  0  0  0  0
    0.8129   -4.1191    0.0000 C   0  0  0  0  0  0  0  0  0  0  0  0
    5.5713   -4.1191    0.0000 C   0  0  0  0  0  0  0  0  0  0  0  0
    4.3748   -2.0550    0.0000 C   0  0  0  0  0  0  0  0  0  0  0  0
    2.0002   -6.1740    0.0000 C   0  0  0  0  0  0  0  0  0  0  0  0
    4.3748   -6.1740    0.0000 C   0  0  0  0  0  0  0  0  0  0  0  0
    0.8129   -5.4891    0.0000 C   0  0  0  0  0  0  0  0  0  0  0  0
    5.5713   -5.4891    0.0000 C   0  0  0  0  0  0  0  0  0  0  0  0
    6.7586   -3.4341    0.0000 C   0  0  0  0  0  0  0  0  0  0  0  0
    5.5713   -1.3700    0.0000 C   0  0  0  0  0  0  0  0  0  0  0  0
    2.6669   -7.2700    0.0000 C   0  0  0  0  0  0  0  0  0  0  0  0
    0.9225   -6.8042    0.0000 C   0  0  0  0  0  0  0  0  0  0  0  0
    6.7586   -2.0550    0.0000 C   0  0  0  0  0  0  0  0  0  0  0  0
    1.1782   -7.9459    0.0000 O   0  0  0  0  0  0  0  0  0  0  0  0
    0.0000   -6.3932    0.0000 O   0  0  0  0  0  0  0  0  0  0  0  0
    7.9459   -1.3700    0.0000 C   0  0  0  0  0  0  0  0  0  0  0  0
    9.1332   -2.0550    0.0000 C   0  0  0  0  0  0  0  0  0  0  0  0
    7.9459   -0.0000    0.0000 C   0  0  0  0  0  0  0  0  0  0  0  0
  1  2  1  0  0  0  0 
  1  3  1  0  0  0  0 
  1  4  1  0  0  0  0 
  1  5  1  1  0  0  0 
  2  6  1  0  0  0  0 
  7  3  1  0  0  0  0 
  3  8  2  0  0  0  0 
  4  9  1  0  0  0  0 
  4 10  1  0  0  0  0 
  6 11  1  0  0  0  0 
  7 12  1  0  0  0  0 
  7 13  2  0  0  0  0 
 14  8  1  0  0  0  0 
  9 11  1  0  0  0  0 
  9 15  1  1  0  0  0 
  9 16  1  6  0  0  0 
 12 10  1  0  0  0  0 
 17 13  1  0  0  0  0 
 17 14  2  0  0  0  0 
 16 18  2  0  0  0  0 
 16 19  1  0  0  0  0 
 17 20  1  0  0  0  0 
 20 21  1  0  0  0  0 
 20 22  1  0  0  0  0 
M  END
> <Name>
(1R-(1alpha,4Abeta,10aalpha))-1,2,3,4,4a,9,10,10a-octahydro-7-isopropyl-1,4a-dimethylphenanthren-1-carboxylic acid

> <Source>
DSSTox2DMolFile

> <Tox>
4.973

> <CAS>
1740-19-8

$$$$

  CDK

 10 10  0  0  0  0  0  0  0  0999 V2000
    5.9872   -3.4546    0.0000 C   0  0  0  0  0  0  0  0  0  0  0  0
    4.6581   -3.4546    0.0000 C   0  0  0  0  0  0  0  0  0  0  0  0
    3.9935   -2.3051    0.0000 C   0  0  0  0  0  0  0  0  0  0  0  0
    2.6583   -2.3051    0.0000 C   0  0  0  0  0  0  0  0  0  0  0  0
    1.9937   -3.4546    0.0000 C   0  0  0  0  0  0  0  0  0  0  0  0
    1.9937   -1.1495    0.0000 C   0  0  0  0  0  0  0  0  0  0  0  0
    0.6646   -3.4546    0.0000 C   0  0  0  0  0  0  0  0  0  0  0  0
    0.6646   -1.1495    0.0000 C   0  0  0  0  0  0  0  0  0  0  0  0
    2.6583   -0.0000    0.0000 O   0  0  0  0  0  0  0  0  0  0  0  0
    0.0000   -2.3051    0.0000 C   0  0  0  0  0  0  0  0  0  0  0  0
  1  2  2  0  0  0  0 
  2  3  1  0  0  0  0 
  3  4  1  0  0  0  0 
  4  5  2  0  0  0  0 
  4  6  1  0  0  0  0 
  5  7  1  0  0  0  0 
  8  6  2  0  0  0  0 
  6  9  1  0  0  0  0 
  7 10  2  0  0  0  0 
 10  8  1  0  0  0  0 
M  END
> <Name>
Phenol, 2-(2-propenyl)-

> <Source>
DSSTox2DMolFile

> <Tox>
3.979

> <CAS>
1745-81-9

$$$$

  CDK

 20 20  0  0  0  0  0  0  0  0999 V2000
    4.6167   -1.9865    0.0000 O   0  0  0  0  0  0  0  0  0  0  0  0
    5.7689   -1.3270    0.0000 C   0  0  0  0  0  0  0  0  0  0  0  0
    4.6167   -3.3135    0.0000 P   0  0  0  0  0  0  0  0  0  0  0  0
    5.7689   -0.0000    0.0000 C   0  0  0  0  0  0  0  0  0  0  0  0
    4.6167   -4.6405    0.0000 O   0  0  0  0  0  0  0  0  0  0  0  0
    5.9437   -3.3135    0.0000 O   0  0  0  0  0  0  0  0  0  0  0  0
    3.2817   -3.3135    0.0000 S   0  0  0  0  0  0  0  0  0  0  0  0
    3.4566   -5.3159    0.0000 C   0  0  0  0  0  0  0  0  0  0  0  0
    6.6191   -2.1613    0.0000 C   0  0  0  0  0  0  0  0  0  0  0  0
    3.4566   -6.6429    0.0000 C   0  0  0  0  0  0  0  0  0  0  0  0
    2.3044   -4.6405    0.0000 C   0  0  0  0  0  0  0  0  0  0  0  0
    7.9461   -2.1613    0.0000 C   0  0  0  0  0  0  0  0  0  0  0  0
    2.3044   -7.3025    0.0000 Cl  0  0  0  0  0  0  0  0  0  0  0  0
    1.1522   -5.3159    0.0000 C   0  0  0  0  0  0  0  0  0  0  0  0
    2.3044   -3.3135    0.0000 C   0  0  0  0  0  0  0  0  0  0  0  0
    0.0000   -4.6405    0.0000 C   0  0  0  0  0  0  0  0  0  0  0  0
    1.1522   -6.6429    0.0000 Cl  0  0  0  0  0  0  0  0  0  0  0  0
    1.1522   -2.6540    0.0000 C   0  0  0  0  0  0  0  0  0  0  0  0
    0.0000   -3.3135    0.0000 C   0  0  0  0  0  0  0  0  0  0  0  0
    1.1522   -1.3270    0.0000 Cl  0  0  0  0  0  0  0  0  0  0  0  0
  1  2  1  0  0  0  0 
  1  3  1  0  0  0  0 
  2  4  1  0  0  0  0 
  3  5  1  0  0  0  0 
  3  6  1  0  0  0  0 
  3  7  2  0  0  0  0 
  5  8  1  0  0  0  0 
  6  9  1  0  0  0  0 
  8 10  2  0  0  0  0 
  8 11  1  0  0  0  0 
  9 12  1  0  0  0  0 
 10 13  1  0  0  0  0 
 11 14  2  0  0  0  0 
 11 15  1  0  0  0  0 
 14 16  1  0  0  0  0 
 14 17  1  0  0  0  0 
 15 18  2  0  0  0  0 
 16 19  2  0  0  0  0 
 18 19  1  0  0  0  0 
 18 20  1  0  0  0  0 
M  END
> <Name>
Phosphorothioic acid, O-(2-chloro-1-(2,5-dichlorophenyl)ethenyl) O,O-diethyl ester

> <Source>
DSSTox2DMolFile

> <Tox>
6.143

> <CAS>
1757-18-2

$$$$

  CDK

 10 10  0  0  0  0  0  0  0  0999 V2000
    2.3039   -1.9986    0.0000 C   0  0  0  0  0  0  0  0  0  0  0  0
    1.1519   -2.6610    0.0000 C   0  0  0  0  0  0  0  0  0  0  0  0
    2.3039   -0.6681    0.0000 C   0  0  0  0  0  0  0  0  0  0  0  0
    3.4558   -2.6610    0.0000 C   0  0  0  0  0  0  0  0  0  0  0  0
    0.0000   -1.9986    0.0000 O   0  0  0  0  0  0  0  0  0  0  0  0
    1.1519   -0.0000    0.0000 O   0  0  0  0  0  0  0  0  0  0  0  0
    3.4558   -0.0000    0.0000 C   0  0  0  0  0  0  0  0  0  0  0  0
    4.6078   -1.9986    0.0000 C   0  0  0  0  0  0  0  0  0  0  0  0
    4.6078   -0.6681    0.0000 C   0  0  0  0  0  0  0  0  0  0  0  0
    5.7597   -2.6610    0.0000 Br  0  0  0  0  0  0  0  0  0  0  0  0
  1  2  1  0  0  0  0 
  1  3  2  0  0  0  0 
  1  4  1  0  0  0  0 
  2  5  2  0  0  0  0 
  3  6  1  0  0  0  0 
  3  7  1  0  0  0  0 
  8  4  2  0  0  0  0 
  7  9  2  0  0  0  0 
  9  8  1  0  0  0  0 
  8 10  1  0  0  0  0 
M  END
> <Name>
Benzaldehyde, 5-bromo-2-hydroxy-

> <Source>
DSSTox2DMolFile

> <Tox>
5.189

> <CAS>
1761-61-1

$$$$

  CDK

 21 22  0  0  0  0  0  0  0  0999 V2000
    0.0000    0.0000    0.0000 C   0  0  0  0  0  0  0  0  0  0  0  0
   -0.1600   -0.9200    1.1800 C   0  0  0  0  0  0  0  0  0  0  0  0
    0.8600    1.0000    0.1600 O   0  0  0  0  0  0  0  0  0  0  0  0
   -0.6200   -0.2000   -1.0200 O   0  0  0  0  0  0  0  0  0  0  0  0
   -1.5000   -0.7400    1.9600 C   0  0  0  0  0  0  0  0  0  0  0  0
   -0.2200   -2.4200    0.8000 C   0  0  0  0  0  0  0  0  0  0  0  0
    0.9600    1.8200   -1.0000 C   0  0  0  0  0  0  0  0  0  0  0  0
   -1.5600    0.8000    2.8800 Cl  0  0  0  0  0  0  0  0  0  0  0  0
   -1.5400   -2.0200    2.8200 C   0  0  0  0  0  0  0  0  0  0  0  0
   -2.6400   -0.9400    1.0000 C   0  0  0  0  0  0  0  0  0  0  0  0
    1.0400   -3.1800    1.1600 C   0  0  0  0  0  0  0  0  0  0  0  0
   -1.5200   -2.8600    1.5200 C   0  0  0  0  0  0  0  0  0  0  0  0
   -0.1600   -2.2800    3.9600 Cl  0  0  0  0  0  0  0  0  0  0  0  0
   -3.0600   -2.2000    3.8000 Cl  0  0  0  0  0  0  0  0  0  0  0  0
   -2.6800   -2.2600    0.7200 C   0  0  0  0  0  0  0  0  0  0  0  0
   -3.7000    0.3000    0.3800 Cl  0  0  0  0  0  0  0  0  0  0  0  0
    0.8600   -4.2200    1.9600 O   0  0  0  0  0  0  0  0  0  0  0  0
    2.1200   -2.8200    0.7400 O   0  0  0  0  0  0  0  0  0  0  0  0
   -1.6800   -4.6400    1.7600 Cl  0  0  0  0  0  0  0  0  0  0  0  0
   -3.7600   -3.1000   -0.3200 Cl  0  0  0  0  0  0  0  0  0  0  0  0
    2.0800   -4.9200    2.2000 C   0  0  0  0  0  0  0  0  0  0  0  0
  1  2  1  0  0  0  0 
  1  3  1  0  0  0  0 
  1  4  2  0  0  0  0 
  2  5  1  0  0  0  0 
  2  6  1  0  0  0  0 
  3  7  1  0  0  0  0 
  5  8  1  0  0  0  0 
  5  9  1  0  0  0  0 
  5 10  1  0  0  0  0 
 11  6  1  0  0  0  0 
  6 12  1  0  0  0  0 
 12  9  1  0  0  0  0 
  9 13  1  0  0  0  0 
  9 14  1  0  0  0  0 
 15 10  2  0  0  0  0 
 10 16  1  0  0  0  0 
 17 11  1  0  0  0  0 
 11 18  2  0  0  0  0 
 12 19  1  0  0  0  0 
 12 15  1  0  0  0  0 
 15 20  1  0  0  0  0 
 21 17  1  0  0  0  0 
M  END
> <Name>
5-Norbornene-2,3-dicarboxylic acid, 1,4,5,6,7,7-hexachloro-, dimethyl ester (8CI)

> <Source>
NIH3DMolFile

> <Tox>
5.383

> <CAS>
1773-89-3

$$$$

  CDK

 23 23  0  0  0  0  0  0  0  0999 V2000
    3.4486   -1.9884    0.0000 C   0  0  0  0  0  0  0  0  0  0  0  0
    4.5981   -2.6615    0.0000 C   0  0  0  0  0  0  0  0  0  0  0  0
    3.4486   -0.6628    0.0000 N   0  0  0  0  0  0  0  0  0  0  0  0
    2.2887   -2.6615    0.0000 C   0  0  0  0  0  0  0  0  0  0  0  0
    4.5981   -3.9871    0.0000 C   0  0  0  0  0  0  0  0  0  0  0  0
    5.7477   -1.9884    0.0000 N   0  0  0  0  0  0  0  0  0  0  0  0
    2.2887   -0.0000    0.0000 O   0  0  0  0  0  0  0  0  0  0  0  0
    4.5981   -0.0000    0.0000 O   0  0  0  0  0  0  0  0  0  0  0  0
    2.2887   -3.9871    0.0000 C   0  0  0  0  0  0  0  0  0  0  0  0
    5.7477   -4.6499    0.0000 N   0  0  0  0  0  0  0  0  0  0  0  0
    3.4486   -4.6499    0.0000 C   0  0  0  0  0  0  0  0  0  0  0  0
    5.7477   -0.6628    0.0000 C   0  0  0  0  0  0  0  0  0  0  0  0
    6.8972   -2.6615    0.0000 C   0  0  0  0  0  0  0  0  0  0  0  0
    1.1392   -4.6499    0.0000 C   0  0  0  0  0  0  0  0  0  0  0  0
    5.7477   -5.9755    0.0000 O   0  0  0  0  0  0  0  0  0  0  0  0
    6.8972   -3.9871    0.0000 O   0  0  0  0  0  0  0  0  0  0  0  0
    6.8972   -0.0000    0.0000 C   0  0  0  0  0  0  0  0  0  0  0  0
    8.0571   -1.9884    0.0000 C   0  0  0  0  0  0  0  0  0  0  0  0
    0.4764   -3.4900    0.0000 F   0  0  0  0  0  0  0  0  0  0  0  0
    1.8123   -5.7994    0.0000 F   0  0  0  0  0  0  0  0  0  0  0  0
    0.0000   -5.3127    0.0000 F   0  0  0  0  0  0  0  0  0  0  0  0
    9.2066   -2.6615    0.0000 C   0  0  0  0  0  0  0  0  0  0  0  0
   10.3561   -1.9884    0.0000 C   0  0  0  0  0  0  0  0  0  0  0  0
  1  2  2  0  0  0  0 
  1  3  1  0  0  0  0 
  1  4  1  0  0  0  0 
  5  2  1  0  0  0  0 
  2  6  1  0  0  0  0 
  3  7  1  0  0  0  0 
  3  8  2  0  0  0  0 
  9  4  2  0  0  0  0 
  5 10  1  0  0  0  0 
  5 11  2  0  0  0  0 
  6 12  1  0  0  0  0 
  6 13  1  0  0  0  0 
 14  9  1  0  0  0  0 
  9 11  1  0  0  0  0 
 10 15  1  0  0  0  0 
 10 16  2  0  0  0  0 
 12 17  1  0  0  0  0 
 13 18  1  0  0  0  0 
 14 19  1  0  0  0  0 
 14 20  1  0  0  0  0 
 14 21  1  0  0  0  0 
 18 22  1  0  0  0  0 
 22 23  1  0  0  0  0 
M  CHG  1   3   1
M  CHG  1   7  -1
M  CHG  1  10   1
M  CHG  1  15  -1
M  END
> <Name>
p-Toluidine, N-butyl-N-ethyl-alpha,alpha,alpha-trifluoro-2,6-dinitro-

> <Source>
DSSTox2DMolFile

> <Tox>
6.525

> <CAS>
1861-40-1

$$$$

  CDK

  6  5  0  0  0  0  0  0  0  0999 V2000
    2.6616   -0.0000    0.0000 C   0  0  0  0  0  0  0  0  0  0  0  0
    1.9952   -1.1492    0.0000 C   0  0  0  0  0  0  0  0  0  0  0  0
    2.6616   -2.3025    0.0000 C   0  0  0  0  0  0  0  0  0  0  0  0
    0.6664   -1.1492    0.0000 C   0  0  0  0  0  0  0  0  0  0  0  0
    3.9905   -2.3025    0.0000 Cl  0  0  0  0  0  0  0  0  0  0  0  0
    0.0000   -2.3025    0.0000 Cl  0  0  0  0  0  0  0  0  0  0  0  0
  1  2  2  0  0  0  0 
  2  3  1  0  0  0  0 
  2  4  1  0  0  0  0 
  3  5  1  0  0  0  0 
  4  6  1  0  0  0  0 
M  END
> <Name>
1-Propene, 3-chloro-2-(chloromethyl)- (9CI)

> <Source>
DSSTox2DMolFile

> <Tox>
5.820

> <CAS>
1871-57-4

$$$$

  CDK

 14 14  0  0  0  0  0  0  0  0999 V2000
    5.9846   -0.0000    0.0000 Cl  0  0  0  0  0  0  0  0  0  0  0  0
    5.3223   -1.1570    0.0000 C   0  0  0  0  0  0  0  0  0  0  0  0
    5.9846   -2.3061    0.0000 N   0  0  0  0  0  0  0  0  0  0  0  0
    3.9898   -1.1570    0.0000 N   0  0  0  0  0  0  0  0  0  0  0  0
    5.3223   -3.4551    0.0000 C   0  0  0  0  0  0  0  0  0  0  0  0
    3.3275   -2.3061    0.0000 C   0  0  0  0  0  0  0  0  0  0  0  0
    3.9898   -3.4551    0.0000 N   0  0  0  0  0  0  0  0  0  0  0  0
    5.9846   -4.6122    0.0000 N   0  0  0  0  0  0  0  0  0  0  0  0
    1.9949   -2.3061    0.0000 N   0  0  0  0  0  0  0  0  0  0  0  0
    7.3172   -4.6122    0.0000 C   0  0  0  0  0  0  0  0  0  0  0  0
    1.3326   -3.4551    0.0000 C   0  0  0  0  0  0  0  0  0  0  0  0
    7.9795   -5.7612    0.0000 C   0  0  0  0  0  0  0  0  0  0  0  0
    1.9949   -4.6122    0.0000 C   0  0  0  0  0  0  0  0  0  0  0  0
    0.0000   -3.4551    0.0000 C   0  0  0  0  0  0  0  0  0  0  0  0
  1  2  1  0  0  0  0 
  2  3  2  0  0  0  0 
  2  4  1  0  0  0  0 
  3  5  1  0  0  0  0 
  6  4  2  0  0  0  0 
  5  7  2  0  0  0  0 
  5  8  1  0  0  0  0 
  7  6  1  0  0  0  0 
  6  9  1  0  0  0  0 
  8 10  1  0  0  0  0 
  9 11  1  0  0  0  0 
 10 12  1  0  0  0  0 
 11 13  1  0  0  0  0 
 11 14  1  0  0  0  0 
M  END
> <Name>
1,3,5-Triazine-2,4-diamine, 6-chloro-N-ethyl-N'-(1-methylethyl)-

> <Source>
DSSTox2DMolFile

> <Tox>
4.158

> <CAS>
1912-24-9

$$$$

  CDK

 13 13  0  0  0  0  0  0  0  0999 V2000
    3.4803   -1.9978    0.0000 C   0  0  0  0  0  0  0  0  0  0  0  0
    2.3395   -1.3493    0.0000 N   0  0  0  0  0  0  0  0  0  0  0  0
    3.4803   -3.3297    0.0000 C   0  0  0  0  0  0  0  0  0  0  0  0
    4.6327   -1.3377    0.0000 C   0  0  0  0  0  0  0  0  0  0  0  0
    1.1813   -1.9978    0.0000 C   0  0  0  0  0  0  0  0  0  0  0  0
    2.3395   -3.9783    0.0000 C   0  0  0  0  0  0  0  0  0  0  0  0
    4.6327   -4.0015    0.0000 Cl  0  0  0  0  0  0  0  0  0  0  0  0
    4.6327   -0.0000    0.0000 O   0  0  0  0  0  0  0  0  0  0  0  0
    5.7908   -1.9805    0.0000 O   0  0  0  0  0  0  0  0  0  0  0  0
    1.1813   -3.3297    0.0000 C   0  0  0  0  0  0  0  0  0  0  0  0
    0.0000   -1.3493    0.0000 Cl  0  0  0  0  0  0  0  0  0  0  0  0
    2.3395   -5.3102    0.0000 N   0  0  0  0  0  0  0  0  0  0  0  0
    0.0116   -3.9899    0.0000 Cl  0  0  0  0  0  0  0  0  0  0  0  0
  1  2  1  0  0  0  0 
  1  3  2  0  0  0  0 
  1  4  1  0  0  0  0 
  2  5  2  0  0  0  0 
  3  6  1  0  0  0  0 
  3  7  1  0  0  0  0 
  4  8  2  0  0  0  0 
  4  9  1  0  0  0  0 
 10  5  1  0  0  0  0 
  5 11  1  0  0  0  0 
 10  6  2  0  0  0  0 
  6 12  1  0  0  0  0 
 10 13  1  0  0  0  0 
M  END
> <Name>
2-Pyridinecarboxylic acid, 4-amino-3,5,6-trichloro-

> <Source>
DSSTox2DMolFile

> <Tox>
3.640

> <CAS>
1918-02-1

$$$$

  CDK

 11 11  0  0  0  0  0  0  0  0999 V2000
    1.1507   -1.1507    0.0000 C   0  0  0  0  0  0  0  0  0  0  0  0
    2.3071   -1.8238    0.0000 C   0  0  0  0  0  0  0  0  0  0  0  0
    0.4833   -2.3071    0.0000 Cl  0  0  0  0  0  0  0  0  0  0  0  0
    0.0000   -0.4775    0.0000 Cl  0  0  0  0  0  0  0  0  0  0  0  0
    1.8238   -0.0000    0.0000 Cl  0  0  0  0  0  0  0  0  0  0  0  0
    3.4577   -1.1794    0.0000 N   0  0  0  0  0  0  0  0  0  0  0  0
    2.3071   -3.1528    0.0000 C   0  0  0  0  0  0  0  0  0  0  0  0
    4.6026   -1.8353    0.0000 C   0  0  0  0  0  0  0  0  0  0  0  0
    3.4577   -3.8259    0.0000 C   0  0  0  0  0  0  0  0  0  0  0  0
    5.7533   -1.1507    0.0000 Cl  0  0  0  0  0  0  0  0  0  0  0  0
    4.6026   -3.1643    0.0000 C   0  0  0  0  0  0  0  0  0  0  0  0
  1  2  1  0  0  0  0 
  1  3  1  0  0  0  0 
  1  4  1  0  0  0  0 
  1  5  1  0  0  0  0 
  6  2  2  0  0  0  0 
  2  7  1  0  0  0  0 
  6  8  1  0  0  0  0 
  7  9  2  0  0  0  0 
  8 10  1  0  0  0  0 
  8 11  2  0  0  0  0 
  9 11  1  0  0  0  0 
M  END
> <Name>
Pyridine, 2-chloro-6-(trichloromethyl)-

> <Source>
DSSTox2DMolFile

> <Tox>
4.368

> <CAS>
1929-82-4

$$$$

  CDK

 20 20  0  0  0  0  0  0  0  0999 V2000
   14.6502   -0.0000    0.0000 C   0  0  0  0  0  0  0  0  0  0  0  0
   13.9909   -1.1574    0.0000 C   0  0  0  0  0  0  0  0  0  0  0  0
   12.6578   -1.1574    0.0000 C   0  0  0  0  0  0  0  0  0  0  0  0
   11.9839   -2.3147    0.0000 C   0  0  0  0  0  0  0  0  0  0  0  0
   10.6507   -2.3147    0.0000 O   0  0  0  0  0  0  0  0  0  0  0  0
    9.9914   -3.4574    0.0000 C   0  0  0  0  0  0  0  0  0  0  0  0
   10.6507   -4.6148    0.0000 O   0  0  0  0  0  0  0  0  0  0  0  0
    8.6583   -3.4574    0.0000 C   0  0  0  0  0  0  0  0  0  0  0  0
    7.9844   -4.6148    0.0000 C   0  0  0  0  0  0  0  0  0  0  0  0
    7.9844   -2.3147    0.0000 C   0  0  0  0  0  0  0  0  0  0  0  0
    6.6658   -4.6148    0.0000 C   0  0  0  0  0  0  0  0  0  0  0  0
    6.6658   -2.3147    0.0000 C   0  0  0  0  0  0  0  0  0  0  0  0
    5.9919   -3.4574    0.0000 C   0  0  0  0  0  0  0  0  0  0  0  0
    4.6588   -3.4574    0.0000 C   0  0  0  0  0  0  0  0  0  0  0  0
    3.9995   -2.3147    0.0000 O   0  0  0  0  0  0  0  0  0  0  0  0
    3.9995   -4.6148    0.0000 O   0  0  0  0  0  0  0  0  0  0  0  0
    2.6663   -4.6148    0.0000 C   0  0  0  0  0  0  0  0  0  0  0  0
    1.9924   -3.4574    0.0000 C   0  0  0  0  0  0  0  0  0  0  0  0
    0.6593   -3.4574    0.0000 C   0  0  0  0  0  0  0  0  0  0  0  0
    0.0000   -2.3147    0.0000 C   0  0  0  0  0  0  0  0  0  0  0  0
  1  2  1  0  0  0  0 
  2  3  1  0  0  0  0 
  3  4  1  0  0  0  0 
  4  5  1  0  0  0  0 
  5  6  1  0  0  0  0 
  6  7  2  0  0  0  0 
  6  8  1  0  0  0  0 
  8  9  2  0  0  0  0 
  8 10  1  0  0  0  0 
  9 11  1  0  0  0  0 
 12 10  2  0  0  0  0 
 11 13  2  0  0  0  0 
 13 12  1  0  0  0  0 
 13 14  1  0  0  0  0 
 14 15  2  0  0  0  0 
 14 16  1  0  0  0  0 
 16 17  1  0  0  0  0 
 17 18  1  0  0  0  0 
 18 19  1  0  0  0  0 
 19 20  1  0  0  0  0 
M  END
> <Name>
1,4-Benzenedicarboxylic acid, dibutyl ester

> <Source>
DSSTox2DMolFile

> <Tox>
5.674

> <CAS>
1962-75-0

$$$$

  CDK

 15 16  0  0  0  0  0  0  0  0999 V2000
    6.9060   -0.0000    0.0000 C   0  0  0  0  0  0  0  0  0  0  0  0
    8.0570   -0.6630    0.0000 C   0  0  0  0  0  0  0  0  0  0  0  0
    5.7550   -0.6630    0.0000 C   0  0  0  0  0  0  0  0  0  0  0  0
    8.0570   -1.9981    0.0000 C   0  0  0  0  0  0  0  0  0  0  0  0
    5.7550   -1.9981    0.0000 C   0  0  0  0  0  0  0  0  0  0  0  0
    4.6040   -0.0000    0.0000 O   0  0  0  0  0  0  0  0  0  0  0  0
    9.2080   -2.6611    0.0000 O   0  0  0  0  0  0  0  0  0  0  0  0
    6.9060   -2.6611    0.0000 C   0  0  0  0  0  0  0  0  0  0  0  0
    3.4530   -0.6630    0.0000 C   0  0  0  0  0  0  0  0  0  0  0  0
    3.4530   -1.9981    0.0000 C   0  0  0  0  0  0  0  0  0  0  0  0
    2.3020   -0.0000    0.0000 C   0  0  0  0  0  0  0  0  0  0  0  0
    2.3020   -2.6611    0.0000 C   0  0  0  0  0  0  0  0  0  0  0  0
    1.1510   -0.6630    0.0000 C   0  0  0  0  0  0  0  0  0  0  0  0
    1.1510   -1.9981    0.0000 C   0  0  0  0  0  0  0  0  0  0  0  0
    0.0000   -2.6611    0.0000 O   0  0  0  0  0  0  0  0  0  0  0  0
  1  2  2  0  0  0  0 
  1  3  1  0  0  0  0 
  2  4  1  0  0  0  0 
  5  3  2  0  0  0  0 
  3  6  1  0  0  0  0 
  4  7  1  0  0  0  0 
  4  8  2  0  0  0  0 
  8  5  1  0  0  0  0 
  6  9  1  0  0  0  0 
  9 10  2  0  0  0  0 
  9 11  1  0  0  0  0 
 10 12  1  0  0  0  0 
 13 11  2  0  0  0  0 
 12 14  2  0  0  0  0 
 14 13  1  0  0  0  0 
 14 15  1  0  0  0  0 
M  END
> <Name>
Phenol, 4,4'-oxybis-

> <Source>
DSSTox2DMolFile

> <Tox>
4.544

> <CAS>
1965-09-9

$$$$

  CDK

 11 11  0  0  0  0  0  0  0  0999 V2000
    2.6581   -1.1545    0.0000 C   0  0  0  0  0  0  0  0  0  0  0  0
    1.9971   -0.0000    0.0000 Cl  0  0  0  0  0  0  0  0  0  0  0  0
    3.9895   -1.1545    0.0000 C   0  0  0  0  0  0  0  0  0  0  0  0
    1.9971   -2.3043    0.0000 C   0  0  0  0  0  0  0  0  0  0  0  0
    4.6552   -2.3043    0.0000 C   0  0  0  0  0  0  0  0  0  0  0  0
    2.6581   -3.4588    0.0000 C   0  0  0  0  0  0  0  0  0  0  0  0
    0.6657   -2.3043    0.0000 C   0  0  0  0  0  0  0  0  0  0  0  0
    3.9895   -3.4588    0.0000 C   0  0  0  0  0  0  0  0  0  0  0  0
    1.9971   -4.6086    0.0000 Cl  0  0  0  0  0  0  0  0  0  0  0  0
    0.0000   -3.4588    0.0000 O   0  0  0  0  0  0  0  0  0  0  0  0
    0.0000   -1.1545    0.0000 N   0  0  0  0  0  0  0  0  0  0  0  0
  1  2  1  0  0  0  0 
  1  3  2  0  0  0  0 
  1  4  1  0  0  0  0 
  3  5  1  0  0  0  0 
  6  4  2  0  0  0  0 
  4  7  1  0  0  0  0 
  5  8  2  0  0  0  0 
  8  6  1  0  0  0  0 
  6  9  1  0  0  0  0 
  7 10  2  0  0  0  0 
  7 11  1  0  0  0  0 
M  END
> <Name>
Benzamide, 2,6-dichloro-

> <Source>
DSSTox2DMolFile

> <Tox>
2.608

> <CAS>
2008-58-4

$$$$

  CDK

  5  4  0  0  0  0  0  0  0  0999 V2000
   -1.1277    1.2335   -0.1493 C   0  0  0  0  0  0  0  0  0  0  0  0
   -0.4364   -0.0142    0.3972 C   0  0  0  0  0  0  0  0  0  0  0  0
    0.9918    0.0178    0.1064 C   0  0  0  0  0  0  0  0  0  0  0  0
   -1.0744   -1.1362   -0.1899 O   0  0  0  0  0  0  0  0  0  0  0  0
    2.1586    0.0435   -0.1306 C   0  0  0  0  0  0  0  0  0  0  0  0
  1  2  1  0  0  0  0 
  2  3  1  0  0  0  0 
  2  4  1  0  0  0  0 
  3  5  3  0  0  0  0 
M  END
> <Name>
1-Butyn-3-ol

> <Source>
DougDB3DMolFile

> <Tox>
3.777

> <CAS>
2028-63-9

$$$$

  CDK

 15 15  0  0  0  0  0  0  0  0999 V2000
    9.2114   -3.3253    0.0000 C   0  0  0  0  0  0  0  0  0  0  0  0
    8.0600   -3.9886    0.0000 N   0  0  0  0  0  0  0  0  0  0  0  0
    6.9086   -3.3253    0.0000 C   0  0  0  0  0  0  0  0  0  0  0  0
    6.9086   -1.9897    0.0000 O   0  0  0  0  0  0  0  0  0  0  0  0
    5.7571   -3.9886    0.0000 O   0  0  0  0  0  0  0  0  0  0  0  0
    4.6057   -3.3253    0.0000 C   0  0  0  0  0  0  0  0  0  0  0  0
    3.4543   -3.9886    0.0000 C   0  0  0  0  0  0  0  0  0  0  0  0
    4.6057   -1.9897    0.0000 C   0  0  0  0  0  0  0  0  0  0  0  0
    2.3029   -3.3253    0.0000 C   0  0  0  0  0  0  0  0  0  0  0  0
    3.4543   -1.3264    0.0000 C   0  0  0  0  0  0  0  0  0  0  0  0
    1.1514   -3.9886    0.0000 C   0  0  0  0  0  0  0  0  0  0  0  0
    2.3029   -1.9897    0.0000 C   0  0  0  0  0  0  0  0  0  0  0  0
    1.1514   -1.3264    0.0000 N   0  0  0  0  0  0  0  0  0  0  0  0
    0.0000   -1.9897    0.0000 C   0  0  0  0  0  0  0  0  0  0  0  0
    1.1514   -0.0000    0.0000 C   0  0  0  0  0  0  0  0  0  0  0  0
  1  2  1  0  0  0  0 
  2  3  1  0  0  0  0 
  3  4  2  0  0  0  0 
  3  5  1  0  0  0  0 
  5  6  1  0  0  0  0 
  6  7  2  0  0  0  0 
  6  8  1  0  0  0  0 
  7  9  1  0  0  0  0 
 10  8  2  0  0  0  0 
  9 11  1  0  0  0  0 
  9 12  2  0  0  0  0 
 12 10  1  0  0  0  0 
 12 13  1  0  0  0  0 
 13 14  1  0  0  0  0 
 13 15  1  0  0  0  0 
M  END
> <Name>
Phenol, 4-(dimethylamino)-3-methyl-, methylcarbamate (ester) (9CI)

> <Source>
DSSTox2DMolFile

> <Tox>
5.029

> <CAS>
2032-59-9

$$$$

  CDK

  8  8  0  0  0  0  0  0  0  0999 V2000
    2.3413   -0.3694    0.0000 N   0  0  0  0  0  0  0  0  0  0  0  0
    3.1202   -1.4466    0.0000 C   0  0  0  0  0  0  0  0  0  0  0  0
    1.0772   -0.7834    0.0000 C   0  0  0  0  0  0  0  0  0  0  0  0
    4.4511   -1.4466    0.0000 Br  0  0  0  0  0  0  0  0  0  0  0  0
    2.3413   -2.5238    0.0000 N   0  0  0  0  0  0  0  0  0  0  0  0
    1.0772   -2.1098    0.0000 C   0  0  0  0  0  0  0  0  0  0  0  0
    0.0000   -0.0000    0.0000 Br  0  0  0  0  0  0  0  0  0  0  0  0
    0.0000   -2.8932    0.0000 Br  0  0  0  0  0  0  0  0  0  0  0  0
  1  2  2  0  0  0  0 
  1  3  1  0  0  0  0 
  2  4  1  0  0  0  0 
  2  5  1  0  0  0  0 
  6  3  2  0  0  0  0 
  3  7  1  0  0  0  0 
  5  6  1  0  0  0  0 
  6  8  1  0  0  0  0 
M  END
> <Name>
1H-Imidazole, 2,4,5-tribromo-

> <Source>
DSSTox2DMolFile

> <Tox>
4.697

> <CAS>
2034-22-2

$$$$

  CDK

 13 14  0  0  0  0  0  0  0  0999 V2000
   -0.5562   -0.5192    0.0758 C   0  0  0  0  0  0  0  0  0  0  0  0
   -1.4028    0.5812   -0.0903 C   0  0  0  0  0  0  0  0  0  0  0  0
   -1.1237   -1.7837    0.2615 C   0  0  0  0  0  0  0  0  0  0  0  0
    0.9068   -0.3842    0.0598 C   0  0  0  0  0  0  0  0  0  0  0  0
   -2.7881    0.4239   -0.0697 C   0  0  0  0  0  0  0  0  0  0  0  0
   -0.7810    2.1300   -0.3340 Cl  0  0  0  0  0  0  0  0  0  0  0  0
   -2.5038   -1.9403    0.2871 C   0  0  0  0  0  0  0  0  0  0  0  0
    1.6645   -1.1533   -0.8269 C   0  0  0  0  0  0  0  0  0  0  0  0
    1.5479    0.4903    0.9400 C   0  0  0  0  0  0  0  0  0  0  0  0
   -3.3368   -0.8374    0.1217 C   0  0  0  0  0  0  0  0  0  0  0  0
    3.0501   -1.0424   -0.8341 C   0  0  0  0  0  0  0  0  0  0  0  0
    2.9343    0.5914    0.9318 C   0  0  0  0  0  0  0  0  0  0  0  0
    3.6862   -0.1723    0.0450 C   0  0  0  0  0  0  0  0  0  0  0  0
  1  2  1  0  0  0  0 
  1  3  2  0  0  0  0 
  1  4  1  0  0  0  0 
  2  5  2  0  0  0  0 
  2  6  1  0  0  0  0 
  7  3  1  0  0  0  0 
  4  8  1  0  0  0  0 
  4  9  2  0  0  0  0 
  5 10  1  0  0  0  0 
 10  7  2  0  0  0  0 
  8 11  2  0  0  0  0 
 12  9  1  0  0  0  0 
 11 13  1  0  0  0  0 
 13 12  2  0  0  0  0 
M  END
> <Name>
1,1'-Biphenyl, 2-chloro- (9CI)

> <Source>
DougDB3DMolFile

> <Tox>
4.674

> <CAS>
2051-60-7

$$$$

  CDK

 13 14  0  0  0  0  0  0  0  0999 V2000
    3.7258    0.4976    0.7698 C   0  0  0  0  0  0  0  0  0  0  0  0
    4.1763   -0.6280    0.0881 C   0  0  0  0  0  0  0  0  0  0  0  0
    2.3859    0.8619    0.7097 C   0  0  0  0  0  0  0  0  0  0  0  0
    3.2828   -1.3921   -0.6554 C   0  0  0  0  0  0  0  0  0  0  0  0
    1.4848    0.0952   -0.0338 C   0  0  0  0  0  0  0  0  0  0  0  0
    1.9406   -1.0356   -0.7164 C   0  0  0  0  0  0  0  0  0  0  0  0
    0.0673    0.4755   -0.0962 C   0  0  0  0  0  0  0  0  0  0  0  0
   -0.9250   -0.4876    0.1008 C   0  0  0  0  0  0  0  0  0  0  0  0
   -0.2961    1.8011   -0.3515 C   0  0  0  0  0  0  0  0  0  0  0  0
   -2.2633   -0.1109    0.0414 C   0  0  0  0  0  0  0  0  0  0  0  0
   -1.6379    2.1611   -0.4116 C   0  0  0  0  0  0  0  0  0  0  0  0
   -2.6304    1.2077   -0.2146 C   0  0  0  0  0  0  0  0  0  0  0  0
   -3.4611   -1.2735    0.2844 Cl  0  0  0  0  0  0  0  0  0  0  0  0
  1  2  1  0  0  0  0 
  1  3  2  0  0  0  0 
  2  4  2  0  0  0  0 
  5  3  1  0  0  0  0 
  4  6  1  0  0  0  0 
  6  5  2  0  0  0  0 
  5  7  1  0  0  0  0 
  7  8  1  0  0  0  0 
  7  9  2  0  0  0  0 
  8 10  2  0  0  0  0 
 11  9  1  0  0  0  0 
 10 12  1  0  0  0  0 
 10 13  1  0  0  0  0 
 12 11  2  0  0  0  0 
M  END
> <Name>
1,1'-Biphenyl, 3-chloro-

> <Source>
DougDB3DMolFile

> <Tox>
4.384

> <CAS>
2051-61-8

$$$$

  CDK

 21 22  0  0  0  0  0  0  0  0999 V2000
    6.6495   -0.0000    0.0000 C   0  0  0  0  0  0  0  0  0  0  0  0
    5.4975   -0.6569    0.0000 C   0  0  0  0  0  0  0  0  0  0  0  0
    5.4975   -1.9908    0.0000 O   0  0  0  0  0  0  0  0  0  0  0  0
    6.6495   -2.6578    0.0000 P   0  0  0  0  0  0  0  0  0  0  0  0
    7.3165   -1.5057    0.0000 S   0  0  0  0  0  0  0  0  0  0  0  0
    5.9826   -3.8098    0.0000 O   0  0  0  0  0  0  0  0  0  0  0  0
    7.8016   -3.3248    0.0000 C   0  0  0  0  0  0  0  0  0  0  0  0
    4.6587   -3.8098    0.0000 C   0  0  0  0  0  0  0  0  0  0  0  0
    8.9536   -2.6578    0.0000 C   0  0  0  0  0  0  0  0  0  0  0  0
    7.8016   -4.6486    0.0000 C   0  0  0  0  0  0  0  0  0  0  0  0
    3.9917   -4.9619    0.0000 C   0  0  0  0  0  0  0  0  0  0  0  0
    3.9917   -2.6578    0.0000 C   0  0  0  0  0  0  0  0  0  0  0  0
   10.1057   -3.3248    0.0000 C   0  0  0  0  0  0  0  0  0  0  0  0
    8.9536   -5.3156    0.0000 C   0  0  0  0  0  0  0  0  0  0  0  0
    2.6578   -4.9619    0.0000 C   0  0  0  0  0  0  0  0  0  0  0  0
    2.6578   -2.6578    0.0000 C   0  0  0  0  0  0  0  0  0  0  0  0
   10.1057   -4.6486    0.0000 C   0  0  0  0  0  0  0  0  0  0  0  0
    1.9908   -3.8098    0.0000 C   0  0  0  0  0  0  0  0  0  0  0  0
    0.6670   -3.8098    0.0000 N   0  0  0  0  0  0  0  0  0  0  0  0
    0.0000   -4.9619    0.0000 O   0  0  0  0  0  0  0  0  0  0  0  0
    0.0000   -2.6578    0.0000 O   0  0  0  0  0  0  0  0  0  0  0  0
  1  2  1  0  0  0  0 
  2  3  1  0  0  0  0 
  3  4  1  0  0  0  0 
  4  5  2  0  0  0  0 
  4  6  1  0  0  0  0 
  4  7  1  0  0  0  0 
  6  8  1  0  0  0  0 
  7  9  2  0  0  0  0 
  7 10  1  0  0  0  0 
  8 11  2  0  0  0  0 
  8 12  1  0  0  0  0 
  9 13  1  0  0  0  0 
 14 10  2  0  0  0  0 
 11 15  1  0  0  0  0 
 16 12  2  0  0  0  0 
 13 17  2  0  0  0  0 
 17 14  1  0  0  0  0 
 15 18  2  0  0  0  0 
 18 16  1  0  0  0  0 
 18 19  1  0  0  0  0 
 19 20  2  0  0  0  0 
 19 21  1  0  0  0  0 
M  CHG  1  19   1
M  CHG  1  21  -1
M  END
> <Name>
Phosphonothioic acid, phenyl-, O-ethyl O-(4-nitrophenyl) ester

> <Source>
DSSTox2DMolFile

> <Tox>
6.209

> <CAS>
2104-64-5

$$$$

  CDK

  6  5  0  0  0  0  0  0  0  0999 V2000
    3.4551   -0.0000    0.0000 O   0  0  0  0  0  0  0  0  0  0  0  0
    3.4551   -1.3314    0.0000 C   0  0  0  0  0  0  0  0  0  0  0  0
    4.6068   -1.9947    0.0000 C   0  0  0  0  0  0  0  0  0  0  0  0
    2.3034   -1.9947    0.0000 C   0  0  0  0  0  0  0  0  0  0  0  0
    1.1517   -1.3314    0.0000 C   0  0  0  0  0  0  0  0  0  0  0  0
    0.0000   -0.6634    0.0000 C   0  0  0  0  0  0  0  0  0  0  0  0
  1  2  1  0  0  0  0 
  2  3  1  0  0  0  0 
  2  4  1  0  0  0  0 
  4  5  1  0  0  0  0 
  5  6  3  0  0  0  0 
M  END
> <Name>
Pent-4-yn-2-ol

> <Source>
DSSTox2DMolFile

> <Tox>
3.380

> <CAS>
2117-11-5

$$$$

  CDK

  9  9  0  0  0  0  0  0  0  0999 V2000
    4.6082   -0.0000    0.0000 O   0  0  0  0  0  0  0  0  0  0  0  0
    3.4561   -0.6636    0.0000 C   0  0  0  0  0  0  0  0  0  0  0  0
    3.4561   -1.9953    0.0000 C   0  0  0  0  0  0  0  0  0  0  0  0
    2.3041   -0.0000    0.0000 C   0  0  0  0  0  0  0  0  0  0  0  0
    4.6082   -2.6589    0.0000 O   0  0  0  0  0  0  0  0  0  0  0  0
    2.3041   -2.6589    0.0000 C   0  0  0  0  0  0  0  0  0  0  0  0
    1.1520   -0.6636    0.0000 C   0  0  0  0  0  0  0  0  0  0  0  0
    1.1520   -1.9953    0.0000 C   0  0  0  0  0  0  0  0  0  0  0  0
    0.0000   -2.6589    0.0000 Cl  0  0  0  0  0  0  0  0  0  0  0  0
  1  2  1  0  0  0  0 
  2  3  2  0  0  0  0 
  2  4  1  0  0  0  0 
  3  5  1  0  0  0  0 
  3  6  1  0  0  0  0 
  7  4  2  0  0  0  0 
  6  8  2  0  0  0  0 
  8  7  1  0  0  0  0 
  8  9  1  0  0  0  0 
M  END
> <Name>
1,2-Benzenediol, 4-chloro-

> <Source>
DSSTox2DMolFile

> <Tox>
4.961

> <CAS>
2138-22-9

$$$$

  CDK

 12 12  0  0  0  0  0  0  0  0999 V2000
    3.3264   -3.4580    0.0000 C   0  0  0  0  0  0  0  0  0  0  0  0
    3.9905   -4.6067    0.0000 O   0  0  0  0  0  0  0  0  0  0  0  0
    1.9922   -3.4580    0.0000 C   0  0  0  0  0  0  0  0  0  0  0  0
    3.9905   -2.3033    0.0000 C   0  0  0  0  0  0  0  0  0  0  0  0
    1.3282   -2.3033    0.0000 C   0  0  0  0  0  0  0  0  0  0  0  0
    3.3264   -1.1547    0.0000 C   0  0  0  0  0  0  0  0  0  0  0  0
    5.3186   -2.3033    0.0000 C   0  0  0  0  0  0  0  0  0  0  0  0
    0.0000   -2.3033    0.0000 O   0  0  0  0  0  0  0  0  0  0  0  0
    1.9922   -1.1547    0.0000 C   0  0  0  0  0  0  0  0  0  0  0  0
    5.9827   -3.4580    0.0000 O   0  0  0  0  0  0  0  0  0  0  0  0
    5.9827   -1.1547    0.0000 O   0  0  0  0  0  0  0  0  0  0  0  0
    5.3186   -0.0000    0.0000 C   0  0  0  0  0  0  0  0  0  0  0  0
  1  2  1  0  0  0  0 
  1  3  2  0  0  0  0 
  1  4  1  0  0  0  0 
  3  5  1  0  0  0  0 
  6  4  2  0  0  0  0 
  4  7  1  0  0  0  0 
  5  8  1  0  0  0  0 
  5  9  2  0  0  0  0 
  9  6  1  0  0  0  0 
  7 10  2  0  0  0  0 
  7 11  1  0  0  0  0 
 11 12  1  0  0  0  0 
M  END
> <Name>
Benzoic acid, 2,4-dihydroxy-, methyl ester

> <Source>
DSSTox2DMolFile

> <Tox>
3.603

> <CAS>
2150-47-2

$$$$

  CDK

 16 18  0  0  0  0  0  0  0  0999 V2000
    3.0331   -6.3349    0.0000 C   0  0  0  0  0  0  0  0  0  0  0  0
    2.6108   -5.3943    0.0000 C   0  0  0  0  0  0  0  0  0  0  0  0
    2.2204   -5.8870    0.0000 C   0  0  0  0  0  0  0  0  0  0  0  0
    3.6154   -5.4327    0.0000 C   0  0  0  0  0  0  0  0  0  0  0  0
    1.2030   -5.0807    0.0000 C   0  0  0  0  0  0  0  0  0  0  0  0
    3.5834   -4.6968    0.0000 C   0  0  0  0  0  0  0  0  0  0  0  0
    2.1244   -4.5496    0.0000 C   0  0  0  0  0  0  0  0  0  0  0  0
    0.4415   -6.3989    0.0000 C   0  0  0  0  0  0  0  0  0  0  0  0
    5.2983   -5.4007    0.0000 C   0  0  0  0  0  0  0  0  0  0  0  0
    1.1710   -3.8457    0.0000 C   0  0  0  0  0  0  0  0  0  0  0  0
    2.2140   -3.1739    0.0000 N   0  0  0  0  0  0  0  0  0  0  0  0
    2.2140   -1.9005    0.0000 C   0  0  0  0  0  0  0  0  0  0  0  0
    1.1070   -1.2606    0.0000 N   0  0  0  0  0  0  0  0  0  0  0  0
    3.3082   -1.2670    0.0000 O   0  0  0  0  0  0  0  0  0  0  0  0
    0.0000   -1.9005    0.0000 C   0  0  0  0  0  0  0  0  0  0  0  0
    1.1070   -0.0000    0.0000 C   0  0  0  0  0  0  0  0  0  0  0  0
  1  2  1  0  0  0  0 
  1  3  1  0  0  0  0 
  1  4  1  0  0  0  0 
  2  5  1  0  0  0  0 
  2  6  1  0  0  0  0 
  7  3  1  0  0  0  0 
  3  8  1  0  0  0  0 
  9  4  1  0  0  0  0 
  5 10  1  0  0  0  0 
  5  8  1  0  0  0  0 
  6  9  1  0  0  0  0 
 10  7  1  0  0  0  0 
 10 11  1  0  0  0  0 
 11 12  1  0  0  0  0 
 12 13  1  0  0  0  0 
 12 14  2  0  0  0  0 
 13 15  1  0  0  0  0 
 13 16  1  0  0  0  0 
M  END
> <Name>
Urea, N,N-dimethyl-N'-(octahydro-4,7-methano-1H-inden-5-yl)-

> <Source>
DSSTox2DMolFile

> <Tox>
3.842

> <CAS>
2163-79-3

$$$$

  CDK

 11 11  0  0  0  0  0  0  0  0999 V2000
    3.9904   -2.3039    0.0000 N   0  0  0  0  0  0  0  0  0  0  0  0
    3.3268   -3.4558    0.0000 C   0  0  0  0  0  0  0  0  0  0  0  0
    3.3268   -1.1519    0.0000 C   0  0  0  0  0  0  0  0  0  0  0  0
    3.9904   -4.6078    0.0000 Cl  0  0  0  0  0  0  0  0  0  0  0  0
    1.9952   -3.4558    0.0000 C   0  0  0  0  0  0  0  0  0  0  0  0
    1.9952   -1.1519    0.0000 C   0  0  0  0  0  0  0  0  0  0  0  0
    3.9904   -0.0000    0.0000 Cl  0  0  0  0  0  0  0  0  0  0  0  0
    1.3317   -4.6078    0.0000 Cl  0  0  0  0  0  0  0  0  0  0  0  0
    1.3317   -2.3039    0.0000 C   0  0  0  0  0  0  0  0  0  0  0  0
    1.3317   -0.0000    0.0000 Cl  0  0  0  0  0  0  0  0  0  0  0  0
    0.0000   -2.3039    0.0000 Cl  0  0  0  0  0  0  0  0  0  0  0  0
  1  2  2  0  0  0  0 
  1  3  1  0  0  0  0 
  2  4  1  0  0  0  0 
  2  5  1  0  0  0  0 
  6  3  2  0  0  0  0 
  3  7  1  0  0  0  0 
  5  8  1  0  0  0  0 
  5  9  2  0  0  0  0 
  9  6  1  0  0  0  0 
  6 10  1  0  0  0  0 
  9 11  1  0  0  0  0 
M  END
> <Name>
Pyridine, 2,3,4,5,6-pentachloro-

> <Source>
DSSTox2DMolFile

> <Tox>
5.730

> <CAS>
2176-62-7

$$$$

  CDK

 11 11  0  0  0  0  0  0  0  0999 V2000
    1.9925   -3.4525    0.0000 C   0  0  0  0  0  0  0  0  0  0  0  0
    1.3283   -2.3037    0.0000 C   0  0  0  0  0  0  0  0  0  0  0  0
    3.3269   -3.4525    0.0000 C   0  0  0  0  0  0  0  0  0  0  0  0
    1.9925   -1.1488    0.0000 C   0  0  0  0  0  0  0  0  0  0  0  0
    0.0000   -2.3037    0.0000 C   0  0  0  0  0  0  0  0  0  0  0  0
    3.9910   -2.3037    0.0000 C   0  0  0  0  0  0  0  0  0  0  0  0
    3.3269   -1.1488    0.0000 C   0  0  0  0  0  0  0  0  0  0  0  0
    5.3194   -2.3037    0.0000 C   0  0  0  0  0  0  0  0  0  0  0  0
    3.9910   -0.0000    0.0000 O   0  0  0  0  0  0  0  0  0  0  0  0
    5.9835   -1.1488    0.0000 C   0  0  0  0  0  0  0  0  0  0  0  0
    5.9835   -3.4525    0.0000 C   0  0  0  0  0  0  0  0  0  0  0  0
  1  2  1  0  0  0  0 
  1  3  1  0  0  0  0 
  2  4  1  0  0  0  0 
  2  5  1  1  0  0  0 
  6  3  1  0  0  0  0 
  4  7  1  0  0  0  0 
  7  6  1  0  0  0  0 
  6  8  1  6  0  0  0 
  7  9  1  1  0  0  0 
  8 10  1  0  0  0  0 
  8 11  1  0  0  0  0 
M  END
> <Name>
Cyclohexanol, 5-methyl-2-(1-methylethyl)-, (1R-(1alpha,2beta,5alpha))- (9CI)

> <Source>
DSSTox2DMolFile

> <Tox>
3.917

> <CAS>
2216-51-5

$$$$

  CDK

 15 16  0  0  0  0  0  0  0  0999 V2000
    2.1391   -6.9756    0.0000 C   0  0  0  0  0  0  0  0  0  0  0  0
    1.1482   -7.8643    0.0000 C   0  0  0  0  0  0  0  0  0  0  0  0
    1.5964   -5.7566    0.0000 N   0  0  0  0  0  0  0  0  0  0  0  0
    0.0000   -7.1958    0.0000 N   0  0  0  0  0  0  0  0  0  0  0  0
    0.2752   -5.8982    0.0000 C   0  0  0  0  0  0  0  0  0  0  0  0
    2.2649   -4.6085    0.0000 S   0  0  0  0  0  0  0  0  0  0  0  0
    1.1089   -3.9400    0.0000 O   0  0  0  0  0  0  0  0  0  0  0  0
    3.4131   -5.2691    0.0000 O   0  0  0  0  0  0  0  0  0  0  0  0
    2.9255   -3.4524    0.0000 C   0  0  0  0  0  0  0  0  0  0  0  0
    4.2624   -3.4524    0.0000 C   0  0  0  0  0  0  0  0  0  0  0  0
    2.2649   -2.3042    0.0000 C   0  0  0  0  0  0  0  0  0  0  0  0
    4.9230   -2.3042    0.0000 C   0  0  0  0  0  0  0  0  0  0  0  0
    2.9255   -1.1482    0.0000 C   0  0  0  0  0  0  0  0  0  0  0  0
    4.2624   -1.1482    0.0000 C   0  0  0  0  0  0  0  0  0  0  0  0
    4.9230   -0.0000    0.0000 C   0  0  0  0  0  0  0  0  0  0  0  0
  1  2  2  0  0  0  0 
  1  3  1  0  0  0  0 
  2  4  1  0  0  0  0 
  5  3  1  0  0  0  0 
  3  6  1  0  0  0  0 
  4  5  2  0  0  0  0 
  6  7  2  0  0  0  0 
  6  8  2  0  0  0  0 
  6  9  1  0  0  0  0 
  9 10  2  0  0  0  0 
  9 11  1  0  0  0  0 
 10 12  1  0  0  0  0 
 13 11  2  0  0  0  0 
 12 14  2  0  0  0  0 
 14 13  1  0  0  0  0 
 14 15  1  0  0  0  0 
M  END
> <Name>
1-(p-Toluenesulphonyl)imidazole

> <Source>
DSSTox2DMolFile

> <Tox>
3.726

> <CAS>
2232-08-8

$$$$

  CDK

 11 11  0  0  0  0  0  0  0  0999 V2000
    2.6567   -3.4525    0.0000 C   0  0  0  0  0  0  0  0  0  0  0  0
    1.9925   -2.3037    0.0000 C   0  0  0  0  0  0  0  0  0  0  0  0
    3.9910   -3.4525    0.0000 C   0  0  0  0  0  0  0  0  0  0  0  0
    0.6642   -2.3037    0.0000 C   0  0  0  0  0  0  0  0  0  0  0  0
    2.6567   -1.1488    0.0000 C   0  0  0  0  0  0  0  0  0  0  0  0
    4.6552   -2.3037    0.0000 C   0  0  0  0  0  0  0  0  0  0  0  0
    0.0000   -3.4525    0.0000 O   0  0  0  0  0  0  0  0  0  0  0  0
    0.0000   -1.1488    0.0000 C   0  0  0  0  0  0  0  0  0  0  0  0
    1.9925   -0.0000    0.0000 Cl  0  0  0  0  0  0  0  0  0  0  0  0
    3.9910   -1.1488    0.0000 C   0  0  0  0  0  0  0  0  0  0  0  0
    5.9835   -2.3037    0.0000 Cl  0  0  0  0  0  0  0  0  0  0  0  0
  1  2  2  0  0  0  0 
  1  3  1  0  0  0  0 
  2  4  1  0  0  0  0 
  2  5  1  0  0  0  0 
  6  3  2  0  0  0  0 
  4  7  2  0  0  0  0 
  4  8  1  0  0  0  0 
  5  9  1  0  0  0  0 
  5 10  2  0  0  0  0 
 10  6  1  0  0  0  0 
  6 11  1  0  0  0  0 
M  END
> <Name>
Acetophenone, 2',4'-dichloro- (8CI)

> <Source>
DSSTox2DMolFile

> <Tox>
4.208

> <CAS>
2234-16-4

$$$$

  CDK

 10  9  0  0  0  0  0  0  0  0999 V2000
    0.0000   -0.6638    0.0000 C   0  0  0  0  0  0  0  0  0  0  0  0
    1.1513   -0.0000    0.0000 C   0  0  0  0  0  0  0  0  0  0  0  0
    2.3027   -0.6638    0.0000 C   0  0  0  0  0  0  0  0  0  0  0  0
    3.4540   -0.0000    0.0000 C   0  0  0  0  0  0  0  0  0  0  0  0
    4.6053   -0.6638    0.0000 C   0  0  0  0  0  0  0  0  0  0  0  0
    5.7670   -0.0000    0.0000 C   0  0  0  0  0  0  0  0  0  0  0  0
    6.9184   -0.6638    0.0000 C   0  0  0  0  0  0  0  0  0  0  0  0
    8.0697   -0.0000    0.0000 C   0  0  0  0  0  0  0  0  0  0  0  0
    9.2210   -0.6638    0.0000 C   0  0  0  0  0  0  0  0  0  0  0  0
   10.3724   -1.3277    0.0000 N   0  0  0  0  0  0  0  0  0  0  0  0
  1  2  1  0  0  0  0 
  2  3  1  0  0  0  0 
  3  4  1  0  0  0  0 
  4  5  1  0  0  0  0 
  5  6  1  0  0  0  0 
  6  7  1  0  0  0  0 
  7  8  1  0  0  0  0 
  8  9  1  0  0  0  0 
  9 10  3  0  0  0  0 
M  END
> <Name>
n-Octanenitrile

> <Source>
DSSTox2DMolFile

> <Tox>
4.305

> <CAS>
2243-27-8

$$$$

  CDK

 13 14  0  0  0  0  0  0  0  0999 V2000
   -0.9722    1.4980   -0.0002 C   0  0  0  0  0  0  0  0  0  0  0  0
   -2.0413    0.6365    0.0004 C   0  0  0  0  0  0  0  0  0  0  0  0
    0.3614    1.0121   -0.0002 C   0  0  0  0  0  0  0  0  0  0  0  0
   -1.8101   -0.7706    0.0002 C   0  0  0  0  0  0  0  0  0  0  0  0
   -3.4286    1.1696    0.0004 C   0  0  0  0  0  0  0  0  0  0  0  0
    0.5954   -0.3786    0.0000 C   0  0  0  0  0  0  0  0  0  0  0  0
    1.4588    1.9148   -0.0003 C   0  0  0  0  0  0  0  0  0  0  0  0
   -0.5238   -1.2528    0.0000 C   0  0  0  0  0  0  0  0  0  0  0  0
   -2.9573   -1.7161   -0.0004 C   0  0  0  0  0  0  0  0  0  0  0  0
    1.9433   -0.8559    0.0002 C   0  0  0  0  0  0  0  0  0  0  0  0
    2.7395    1.4362    0.0000 C   0  0  0  0  0  0  0  0  0  0  0  0
    2.9818    0.0447    0.0003 C   0  0  0  0  0  0  0  0  0  0  0  0
    2.2331   -2.3145    0.0000 C   0  0  0  0  0  0  0  0  0  0  0  0
  1  2  1  0  0  0  0 
  1  3  2  0  0  0  0 
  2  4  2  0  0  0  0 
  2  5  1  0  0  0  0 
  6  3  1  0  0  0  0 
  7  3  1  0  0  0  0 
  4  8  1  0  0  0  0 
  4  9  1  0  0  0  0 
  8  6  2  0  0  0  0 
  6 10  1  0  0  0  0 
 11  7  2  0  0  0  0 
 10 12  2  0  0  0  0 
 10 13  1  0  0  0  0 
 12 11  1  0  0  0  0 
M  END
> <Name>
Naphthalene, 1,6,7-trimethyl- (8CI)(9CI)

> <Source>
DougDB3DMolFile

> <Tox>
4.425

> <CAS>
2245-38-7

$$$$

  CDK

 12 12  0  0  0  0  0  0  0  0999 V2000
    5.7606   -2.6614    0.0000 N   0  0  0  0  0  0  0  0  0  0  0  0
    4.6085   -1.9989    0.0000 C   0  0  0  0  0  0  0  0  0  0  0  0
    3.4563   -2.6614    0.0000 C   0  0  0  0  0  0  0  0  0  0  0  0
    4.6085   -0.6682    0.0000 C   0  0  0  0  0  0  0  0  0  0  0  0
    2.3042   -1.9989    0.0000 C   0  0  0  0  0  0  0  0  0  0  0  0
    3.4563   -0.0000    0.0000 C   0  0  0  0  0  0  0  0  0  0  0  0
    1.1521   -2.6614    0.0000 C   0  0  0  0  0  0  0  0  0  0  0  0
    2.3042   -0.6682    0.0000 C   0  0  0  0  0  0  0  0  0  0  0  0
    0.4896   -1.5093    0.0000 F   0  0  0  0  0  0  0  0  0  0  0  0
    1.8146   -3.8135    0.0000 F   0  0  0  0  0  0  0  0  0  0  0  0
    0.0000   -3.3239    0.0000 F   0  0  0  0  0  0  0  0  0  0  0  0
    1.1521   -0.0000    0.0000 F   0  0  0  0  0  0  0  0  0  0  0  0
  1  2  1  0  0  0  0 
  2  3  2  0  0  0  0 
  2  4  1  0  0  0  0 
  3  5  1  0  0  0  0 
  6  4  2  0  0  0  0 
  5  7  1  0  0  0  0 
  5  8  2  0  0  0  0 
  8  6  1  0  0  0  0 
  7  9  1  0  0  0  0 
  7 10  1  0  0  0  0 
  7 11  1  0  0  0  0 
  8 12  1  0  0  0  0 
M  END
> <Name>
alpha,alpha,alpha,4-Tetrafluoro-m-toluidine

> <Source>
DSSTox2DMolFile

> <Tox>
3.775

> <CAS>
2357-47-3

$$$$

  CDK

 13 14  0  0  0  0  0  0  0  0999 V2000
    2.6607   -2.3082    0.0000 C   0  0  0  0  0  0  0  0  0  0  0  0
    1.9955   -3.4589    0.0000 C   0  0  0  0  0  0  0  0  0  0  0  0
    1.9955   -1.1574    0.0000 C   0  0  0  0  0  0  0  0  0  0  0  0
    3.9910   -2.3082    0.0000 C   0  0  0  0  0  0  0  0  0  0  0  0
    0.6652   -3.4589    0.0000 C   0  0  0  0  0  0  0  0  0  0  0  0
    0.6652   -1.1574    0.0000 C   0  0  0  0  0  0  0  0  0  0  0  0
    2.6607   -0.0000    0.0000 O   0  0  0  0  0  0  0  0  0  0  0  0
    4.6562   -1.1574    0.0000 C   0  0  0  0  0  0  0  0  0  0  0  0
    4.6562   -3.4589    0.0000 C   0  0  0  0  0  0  0  0  0  0  0  0
    0.0000   -2.3082    0.0000 C   0  0  0  0  0  0  0  0  0  0  0  0
    5.9866   -1.1574    0.0000 C   0  0  0  0  0  0  0  0  0  0  0  0
    5.9866   -3.4589    0.0000 C   0  0  0  0  0  0  0  0  0  0  0  0
    6.6517   -2.3082    0.0000 C   0  0  0  0  0  0  0  0  0  0  0  0
  1  2  1  0  0  0  0 
  1  3  1  0  0  0  0 
  1  4  1  6  0  0  0 
  2  5  1  0  0  0  0 
  6  3  1  0  0  0  0 
  3  7  1  1  0  0  0 
  4  8  2  0  0  0  0 
  4  9  1  0  0  0  0 
  5 10  1  0  0  0  0 
 10  6  1  0  0  0  0 
  8 11  1  0  0  0  0 
 12  9  2  0  0  0  0 
 11 13  2  0  0  0  0 
 13 12  1  0  0  0  0 
M  END
> <Name>
trans-2-Phenylcyclohexanol

> <Source>
DSSTox2DMolFile

> <Tox>
3.599

> <CAS>
2362-61-0

$$$$

  CDK

 11 10  0  0  0  0  0  0  0  0999 V2000
    7.9743   -2.3046    0.0000 C   0  0  0  0  0  0  0  0  0  0  0  0
    7.3125   -1.1563    0.0000 C   0  0  0  0  0  0  0  0  0  0  0  0
    7.9743   -0.0000    0.0000 C   0  0  0  0  0  0  0  0  0  0  0  0
    5.9808   -1.1563    0.0000 C   0  0  0  0  0  0  0  0  0  0  0  0
    5.3189   -0.0000    0.0000 O   0  0  0  0  0  0  0  0  0  0  0  0
    5.3189   -2.3046    0.0000 O   0  0  0  0  0  0  0  0  0  0  0  0
    3.9872   -2.3046    0.0000 C   0  0  0  0  0  0  0  0  0  0  0  0
    3.3253   -1.1563    0.0000 C   0  0  0  0  0  0  0  0  0  0  0  0
    1.9936   -1.1563    0.0000 O   0  0  0  0  0  0  0  0  0  0  0  0
    1.3317   -0.0000    0.0000 C   0  0  0  0  0  0  0  0  0  0  0  0
    0.0000   -0.0000    0.0000 C   0  0  0  0  0  0  0  0  0  0  0  0
  1  2  2  0  0  0  0 
  2  3  1  0  0  0  0 
  2  4  1  0  0  0  0 
  4  5  2  0  0  0  0 
  4  6  1  0  0  0  0 
  6  7  1  0  0  0  0 
  7  8  1  0  0  0  0 
  8  9  1  0  0  0  0 
  9 10  1  0  0  0  0 
 10 11  1  0  0  0  0 
M  END
> <Name>
2-Propenoic acid, 2-methyl-, 2-ethoxyethyl ester

> <Source>
DSSTox2DMolFile

> <Tox>
3.757

> <CAS>
2370-63-0

$$$$

  CDK

 22 26  0  0  0  0  0  0  0  0999 V2000
    2.0888   -1.6738    0.0000 C   0  0  0  0  0  0  0  0  0  0  0  0
    3.2727   -2.7488    0.0000 C   0  0  0  0  0  0  0  0  0  0  0  0
    2.0888   -3.1434    0.0000 C   0  0  0  0  0  0  0  0  0  0  0  0
    3.6129   -1.6738    0.0000 C   0  0  0  0  0  0  0  0  0  0  0  0
    1.3336   -1.6738    0.0000 Cl  0  0  0  0  0  0  0  0  0  0  0  0
    3.2727   -4.2116    0.0000 C   0  0  0  0  0  0  0  0  0  0  0  0
    4.8171   -2.7488    0.0000 C   0  0  0  0  0  0  0  0  0  0  0  0
    2.5855   -2.7488    0.0000 Cl  0  0  0  0  0  0  0  0  0  0  0  0
    3.6129   -3.1434    0.0000 C   0  0  0  0  0  0  0  0  0  0  0  0
    0.8777   -4.9668    0.0000 C   0  0  0  0  0  0  0  0  0  0  0  0
    1.3131   -3.1434    0.0000 Cl  0  0  0  0  0  0  0  0  0  0  0  0
    6.0895   -0.8641    0.0000 C   0  0  0  0  0  0  0  0  0  0  0  0
    3.6129   -1.0070    0.0000 Cl  0  0  0  0  0  0  0  0  0  0  0  0
    4.8171   -4.2116    0.0000 C   0  0  0  0  0  0  0  0  0  0  0  0
    3.2727   -4.8852    0.0000 Cl  0  0  0  0  0  0  0  0  0  0  0  0
    5.5928   -2.7488    0.0000 Cl  0  0  0  0  0  0  0  0  0  0  0  0
    4.3953   -3.1434    0.0000 Cl  0  0  0  0  0  0  0  0  0  0  0  0
    0.0000   -4.3341    0.0000 Cl  0  0  0  0  0  0  0  0  0  0  0  0
    0.6668   -5.9398    0.0000 Cl  0  0  0  0  0  0  0  0  0  0  0  0
    6.3616   -0.0000    0.0000 Cl  0  0  0  0  0  0  0  0  0  0  0  0
    6.8039   -1.4764    0.0000 Cl  0  0  0  0  0  0  0  0  0  0  0  0
    5.5656   -4.2116    0.0000 Cl  0  0  0  0  0  0  0  0  0  0  0  0
  1  2  1  0  0  0  0 
  1  3  1  0  0  0  0 
  1  4  1  0  0  0  0 
  1  5  1  0  0  0  0 
  2  6  1  0  0  0  0 
  2  7  1  0  0  0  0 
  2  8  1  0  0  0  0 
  9  3  1  0  0  0  0 
  3 10  1  0  0  0  0 
  3 11  1  0  0  0  0 
  9  4  1  0  0  0  0 
  4 12  1  0  0  0  0 
  4 13  1  0  0  0  0 
 14  6  1  0  0  0  0 
  6 15  1  0  0  0  0 
  6 10  1  0  0  0  0 
 14  7  1  0  0  0  0 
  7 16  1  0  0  0  0 
  7 12  1  0  0  0  0 
  9 14  1  0  0  0  0 
  9 17  1  0  0  0  0 
 10 18  1  0  0  0  0 
 10 19  1  0  0  0  0 
 12 20  1  0  0  0  0 
 12 21  1  0  0  0  0 
 14 22  1  0  0  0  0 
M  END
> <Name>
1,3,4-Metheno-1H-cyclobuta(cd)pentalene, 1,1a,2,2,3,3a,4,5,5,5a,5b,6-dodecachlorooctahydro-

> <Source>
DSSTox2DMolFile

> <Tox>
3.623

> <CAS>
2385-85-5

$$$$

  CDK

 10 10  0  0  0  0  0  0  0  0999 V2000
    1.3296   -0.0000    0.0000 O   0  0  0  0  0  0  0  0  0  0  0  0
    1.9943   -1.1541    0.0000 C   0  0  0  0  0  0  0  0  0  0  0  0
    3.3239   -1.1541    0.0000 C   0  0  0  0  0  0  0  0  0  0  0  0
    1.3296   -2.3081    0.0000 C   0  0  0  0  0  0  0  0  0  0  0  0
    3.9887   -0.0000    0.0000 C   0  0  0  0  0  0  0  0  0  0  0  0
    3.9887   -2.3081    0.0000 C   0  0  0  0  0  0  0  0  0  0  0  0
    1.9943   -3.4568    0.0000 C   0  0  0  0  0  0  0  0  0  0  0  0
    0.0000   -2.3081    0.0000 C   0  0  0  0  0  0  0  0  0  0  0  0
    5.3182   -2.3081    0.0000 C   0  0  0  0  0  0  0  0  0  0  0  0
    3.3239   -3.4568    0.0000 C   0  0  0  0  0  0  0  0  0  0  0  0
  1  2  1  0  0  0  0 
  2  3  2  0  0  0  0 
  2  4  1  0  0  0  0 
  3  5  1  0  0  0  0 
  3  6  1  0  0  0  0 
  7  4  2  0  0  0  0 
  4  8  1  0  0  0  0 
  6  9  1  0  0  0  0 
  6 10  2  0  0  0  0 
 10  7  1  0  0  0  0 
M  END
> <Name>
Phenol, 2,3,6-trimethyl-

> <Source>
DSSTox2DMolFile

> <Tox>
4.220

> <CAS>
2416-94-6

$$$$

  CDK

 11 11  0  0  0  0  0  0  0  0999 V2000
    2.6581   -2.3043    0.0000 C   0  0  0  0  0  0  0  0  0  0  0  0
    1.9971   -1.1545    0.0000 O   0  0  0  0  0  0  0  0  0  0  0  0
    3.9895   -2.3043    0.0000 C   0  0  0  0  0  0  0  0  0  0  0  0
    1.9971   -3.4588    0.0000 C   0  0  0  0  0  0  0  0  0  0  0  0
    2.6581   -0.0000    0.0000 C   0  0  0  0  0  0  0  0  0  0  0  0
    4.6552   -3.4588    0.0000 C   0  0  0  0  0  0  0  0  0  0  0  0
    2.6581   -4.6086    0.0000 C   0  0  0  0  0  0  0  0  0  0  0  0
    0.6657   -3.4588    0.0000 C   0  0  0  0  0  0  0  0  0  0  0  0
    3.9895   -4.6086    0.0000 C   0  0  0  0  0  0  0  0  0  0  0  0
    0.0000   -4.6086    0.0000 O   0  0  0  0  0  0  0  0  0  0  0  0
    0.0000   -2.3043    0.0000 N   0  0  0  0  0  0  0  0  0  0  0  0
  1  2  1  0  0  0  0 
  1  3  2  0  0  0  0 
  1  4  1  0  0  0  0 
  2  5  1  0  0  0  0 
  3  6  1  0  0  0  0 
  7  4  2  0  0  0  0 
  4  8  1  0  0  0  0 
  6  9  2  0  0  0  0 
  9  7  1  0  0  0  0 
  8 10  2  0  0  0  0 
  8 11  1  0  0  0  0 
M  END
> <Name>
Benzamide, 2-methoxy- (9CI)

> <Source>
DSSTox2DMolFile

> <Tox>
3.100

> <CAS>
2439-77-2

$$$$

  CDK

 11 11  0  0  0  0  0  0  0  0999 V2000
    2.6567   -1.1488    0.0000 C   0  0  0  0  0  0  0  0  0  0  0  0
    1.9925   -0.0000    0.0000 Cl  0  0  0  0  0  0  0  0  0  0  0  0
    3.9910   -1.1488    0.0000 C   0  0  0  0  0  0  0  0  0  0  0  0
    1.9925   -2.3037    0.0000 C   0  0  0  0  0  0  0  0  0  0  0  0
    4.6552   -2.3037    0.0000 C   0  0  0  0  0  0  0  0  0  0  0  0
    2.6567   -3.4525    0.0000 C   0  0  0  0  0  0  0  0  0  0  0  0
    0.6642   -2.3037    0.0000 C   0  0  0  0  0  0  0  0  0  0  0  0
    5.9835   -2.3037    0.0000 Cl  0  0  0  0  0  0  0  0  0  0  0  0
    3.9910   -3.4525    0.0000 C   0  0  0  0  0  0  0  0  0  0  0  0
    0.0000   -3.4525    0.0000 O   0  0  0  0  0  0  0  0  0  0  0  0
    0.0000   -1.1488    0.0000 N   0  0  0  0  0  0  0  0  0  0  0  0
  1  2  1  0  0  0  0 
  1  3  2  0  0  0  0 
  1  4  1  0  0  0  0 
  3  5  1  0  0  0  0 
  6  4  2  0  0  0  0 
  4  7  1  0  0  0  0 
  5  8  1  0  0  0  0 
  5  9  2  0  0  0  0 
  9  6  1  0  0  0  0 
  7 10  2  0  0  0  0 
  7 11  1  0  0  0  0 
M  END
> <Name>
Benzamide, 2,4-dichloro-

> <Source>
DSSTox2DMolFile

> <Tox>
3.298

> <CAS>
2447-79-2

$$$$

  CDK

 12 12  0  0  0  0  0  0  0  0999 V2000
    0.0000   -2.3053    0.0000 C   0  0  0  0  0  0  0  0  0  0  0  0
    1.3331   -2.3053    0.0000 C   0  0  0  0  0  0  0  0  0  0  0  0
    1.9960   -3.4543    0.0000 C   0  0  0  0  0  0  0  0  0  0  0  0
    1.9960   -1.1490    0.0000 C   0  0  0  0  0  0  0  0  0  0  0  0
    1.3331   -0.0000    0.0000 O   0  0  0  0  0  0  0  0  0  0  0  0
    3.3217   -1.1490    0.0000 O   0  0  0  0  0  0  0  0  0  0  0  0
    3.9919   -2.3053    0.0000 C   0  0  0  0  0  0  0  0  0  0  0  0
    5.3177   -2.3053    0.0000 C   0  0  0  0  0  0  0  0  0  0  0  0
    6.0984   -1.2300    0.0000 O   0  0  0  0  0  0  0  0  0  0  0  0
    6.0984   -3.3806    0.0000 C   0  0  0  0  0  0  0  0  0  0  0  0
    7.3652   -1.6351    0.0000 C   0  0  0  0  0  0  0  0  0  0  0  0
    7.3652   -2.9682    0.0000 C   0  0  0  0  0  0  0  0  0  0  0  0
  1  2  2  0  0  0  0 
  2  3  1  0  0  0  0 
  2  4  1  0  0  0  0 
  4  5  2  0  0  0  0 
  4  6  1  0  0  0  0 
  6  7  1  0  0  0  0 
  7  8  1  0  0  0  0 
  8  9  1  0  0  0  0 
  8 10  1  0  0  0  0 
  9 11  1  0  0  0  0 
 12 10  1  0  0  0  0 
 11 12  1  0  0  0  0 
M  END
> <Name>
Methacrylic acid, tetrahydrofurfuryl ester (8CI)

> <Source>
DSSTox2DMolFile

> <Tox>
3.691

> <CAS>
2455-24-5

$$$$

  CDK

 11 11  0  0  0  0  0  0  0  0999 V2000
    4.6072   -0.0000    0.0000 O   0  0  0  0  0  0  0  0  0  0  0  0
    3.4554   -0.6680    0.0000 C   0  0  0  0  0  0  0  0  0  0  0  0
    3.4554   -1.9984    0.0000 C   0  0  0  0  0  0  0  0  0  0  0  0
    2.3036   -0.0000    0.0000 C   0  0  0  0  0  0  0  0  0  0  0  0
    4.6072   -2.6607    0.0000 O   0  0  0  0  0  0  0  0  0  0  0  0
    2.3036   -2.6607    0.0000 C   0  0  0  0  0  0  0  0  0  0  0  0
    1.1518   -0.6680    0.0000 C   0  0  0  0  0  0  0  0  0  0  0  0
    5.7591   -1.9984    0.0000 C   0  0  0  0  0  0  0  0  0  0  0  0
    1.1518   -1.9984    0.0000 C   0  0  0  0  0  0  0  0  0  0  0  0
    0.0000   -0.0000    0.0000 Cl  0  0  0  0  0  0  0  0  0  0  0  0
    0.0000   -2.6607    0.0000 Cl  0  0  0  0  0  0  0  0  0  0  0  0
  1  2  1  0  0  0  0 
  2  3  2  0  0  0  0 
  2  4  1  0  0  0  0 
  3  5  1  0  0  0  0 
  3  6  1  0  0  0  0 
  7  4  2  0  0  0  0 
  5  8  1  0  0  0  0 
  6  9  2  0  0  0  0 
  9  7  1  0  0  0  0 
  7 10  1  0  0  0  0 
  9 11  1  0  0  0  0 
M  END
> <Name>
Phenol, 4,5-dichloro-2-methoxy-

> <Source>
DSSTox2DMolFile

> <Tox>
4.635

> <CAS>
2460-49-3

$$$$

  CDK

 13 13  0  0  0  0  0  0  0  0999 V2000
    1.9937   -3.4530    0.0000 C   0  0  0  0  0  0  0  0  0  0  0  0
    1.3318   -2.3047    0.0000 C   0  0  0  0  0  0  0  0  0  0  0  0
    0.0000   -2.3047    0.0000 C   0  0  0  0  0  0  0  0  0  0  0  0
    1.9937   -1.1483    0.0000 C   0  0  0  0  0  0  0  0  0  0  0  0
    1.3318   -0.0000    0.0000 O   0  0  0  0  0  0  0  0  0  0  0  0
    3.3254   -1.1483    0.0000 O   0  0  0  0  0  0  0  0  0  0  0  0
    3.9873   -2.3047    0.0000 C   0  0  0  0  0  0  0  0  0  0  0  0
    5.3191   -2.3047    0.0000 C   0  0  0  0  0  0  0  0  0  0  0  0
    5.9810   -1.1483    0.0000 C   0  0  0  0  0  0  0  0  0  0  0  0
    5.9810   -3.4530    0.0000 C   0  0  0  0  0  0  0  0  0  0  0  0
    7.3127   -1.1483    0.0000 C   0  0  0  0  0  0  0  0  0  0  0  0
    7.3127   -3.4530    0.0000 C   0  0  0  0  0  0  0  0  0  0  0  0
    7.9746   -2.3047    0.0000 C   0  0  0  0  0  0  0  0  0  0  0  0
  1  2  2  0  0  0  0 
  2  3  1  0  0  0  0 
  2  4  1  0  0  0  0 
  4  5  2  0  0  0  0 
  4  6  1  0  0  0  0 
  6  7  1  0  0  0  0 
  7  8  1  0  0  0  0 
  8  9  2  0  0  0  0 
  8 10  1  0  0  0  0 
  9 11  1  0  0  0  0 
 12 10  2  0  0  0  0 
 11 13  2  0  0  0  0 
 13 12  1  0  0  0  0 
M  END
> <Name>
2-Propenoic acid, 2-methyl-, phenylmethyl ester

> <Source>
DSSTox2DMolFile

> <Tox>
4.577

> <CAS>
2495-37-6

$$$$

  CDK

 11 10  0  0  0  0  0  0  0  0999 V2000
    0.0000   -1.3279    0.0000 C   0  0  0  0  0  0  0  0  0  0  0  0
    1.1515   -1.9918    0.0000 C   0  0  0  0  0  0  0  0  0  0  0  0
    2.3031   -1.3279    0.0000 C   0  0  0  0  0  0  0  0  0  0  0  0
    2.3031   -0.0000    0.0000 O   0  0  0  0  0  0  0  0  0  0  0  0
    3.4546   -1.9918    0.0000 O   0  0  0  0  0  0  0  0  0  0  0  0
    4.6061   -1.3279    0.0000 C   0  0  0  0  0  0  0  0  0  0  0  0
    5.7681   -1.9918    0.0000 C   0  0  0  0  0  0  0  0  0  0  0  0
    6.9196   -1.3279    0.0000 C   0  0  0  0  0  0  0  0  0  0  0  0
    8.0711   -1.9918    0.0000 C   0  0  0  0  0  0  0  0  0  0  0  0
    9.2227   -1.3279    0.0000 C   0  0  0  0  0  0  0  0  0  0  0  0
   10.3742   -1.9918    0.0000 C   0  0  0  0  0  0  0  0  0  0  0  0
  1  2  2  0  0  0  0 
  2  3  1  0  0  0  0 
  3  4  2  0  0  0  0 
  3  5  1  0  0  0  0 
  5  6  1  0  0  0  0 
  6  7  1  0  0  0  0 
  7  8  1  0  0  0  0 
  8  9  1  0  0  0  0 
  9 10  1  0  0  0  0 
 10 11  1  0  0  0  0 
M  END
> <Name>
2-Propenoic acid, hexyl ester

> <Source>
DSSTox2DMolFile

> <Tox>
5.146

> <CAS>
2499-95-8

$$$$

  CDK

 20 20  0  0  0  0  0  0  0  0999 V2000
    2.2343   -2.2343    0.0000 N   0  0  0  0  0  0  0  0  0  0  0  0
    3.4448   -1.7293    0.0000 C   0  0  0  0  0  0  0  0  0  0  0  0
    1.7293   -3.4448    0.0000 C   0  0  0  0  0  0  0  0  0  0  0  0
    1.2728   -1.2728    0.0000 N   0  0  0  0  0  0  0  0  0  0  0  0
    4.6829   -2.2343    0.0000 N   0  0  0  0  0  0  0  0  0  0  0  0
    2.2343   -4.6829    0.0000 N   0  0  0  0  0  0  0  0  0  0  0  0
    1.6255   -0.0000    0.0000 O   0  0  0  0  0  0  0  0  0  0  0  0
    0.0000   -1.6255    0.0000 O   0  0  0  0  0  0  0  0  0  0  0  0
    5.1879   -3.4448    0.0000 C   0  0  0  0  0  0  0  0  0  0  0  0
    5.6306   -1.2728    0.0000 N   0  0  0  0  0  0  0  0  0  0  0  0
    3.4448   -5.1879    0.0000 C   0  0  0  0  0  0  0  0  0  0  0  0
    1.2728   -5.6306    0.0000 N   0  0  0  0  0  0  0  0  0  0  0  0
    4.6829   -4.6829    0.0000 N   0  0  0  0  0  0  0  0  0  0  0  0
    6.9172   -1.6255    0.0000 O   0  0  0  0  0  0  0  0  0  0  0  0
    5.2916   -0.0000    0.0000 O   0  0  0  0  0  0  0  0  0  0  0  0
    0.0000   -5.2916    0.0000 O   0  0  0  0  0  0  0  0  0  0  0  0
    1.6255   -6.9172    0.0000 O   0  0  0  0  0  0  0  0  0  0  0  0
    5.6306   -5.6306    0.0000 N   0  0  0  0  0  0  0  0  0  0  0  0
    5.2916   -6.9172    0.0000 O   0  0  0  0  0  0  0  0  0  0  0  0
    6.9172   -5.2916    0.0000 O   0  0  0  0  0  0  0  0  0  0  0  0
  1  2  1  0  0  0  0 
  1  3  1  0  0  0  0 
  1  4  1  0  0  0  0 
  2  5  1  0  0  0  0 
  3  6  1  0  0  0  0 
  4  7  1  0  0  0  0 
  4  8  2  0  0  0  0 
  5  9  1  0  0  0  0 
  5 10  1  0  0  0  0 
  6 11  1  0  0  0  0 
  6 12  1  0  0  0  0 
  9 13  1  0  0  0  0 
 10 14  1  0  0  0  0 
 10 15  2  0  0  0  0 
 11 13  1  0  0  0  0 
 12 16  1  0  0  0  0 
 12 17  2  0  0  0  0 
 13 18  1  0  0  0  0 
 18 19  1  0  0  0  0 
 18 20  2  0  0  0  0 
M  CHG  1   4   1
M  CHG  1   7  -1
M  CHG  1  10   1
M  CHG  1  12   1
M  CHG  1  14  -1
M  CHG  1  16  -1
M  CHG  1  18   1
M  CHG  1  19  -1
M  END
> <Name>
1,3,5,7-Tetrazocine, octahydro-1,3,5,7-tetranitro-

> <Source>
DSSTox2DMolFile

> <Tox>
4.295

> <CAS>
2691-41-0

$$$$

  CDK

 14 16  0  0  0  0  0  0  0  0999 V2000
    1.9739   -1.1564    0.0000 N   0  0  0  0  0  0  0  0  0  0  0  0
    2.6518   -2.2996    0.0000 C   0  0  0  0  0  0  0  0  0  0  0  0
    2.6319   -0.0000    0.0000 C   0  0  0  0  0  0  0  0  0  0  0  0
    0.6580   -1.1564    0.0000 C   0  0  0  0  0  0  0  0  0  0  0  0
    3.9678   -2.2996    0.0000 C   0  0  0  0  0  0  0  0  0  0  0  0
    2.0072   -3.4560    0.0000 C   0  0  0  0  0  0  0  0  0  0  0  0
    3.9678   -0.0000    0.0000 C   0  0  0  0  0  0  0  0  0  0  0  0
    0.0000   -2.3129    0.0000 C   0  0  0  0  0  0  0  0  0  0  0  0
    4.6391   -1.1564    0.0000 N   0  0  0  0  0  0  0  0  0  0  0  0
    4.6258   -3.4560    0.0000 C   0  0  0  0  0  0  0  0  0  0  0  0
    0.7045   -3.4693    0.0000 C   0  0  0  0  0  0  0  0  0  0  0  0
    5.9750   -1.1564    0.0000 C   0  0  0  0  0  0  0  0  0  0  0  0
    5.9750   -3.4560    0.0000 C   0  0  0  0  0  0  0  0  0  0  0  0
    6.6462   -2.2996    0.0000 C   0  0  0  0  0  0  0  0  0  0  0  0
  1  2  2  0  0  0  0 
  1  3  1  0  0  0  0 
  1  4  1  0  0  0  0 
  2  5  1  0  0  0  0 
  2  6  1  0  0  0  0 
  3  7  1  0  0  0  0 
  4  8  2  0  0  0  0 
  9  5  2  0  0  0  0 
  5 10  1  0  0  0  0 
  6 11  2  0  0  0  0 
  9  7  1  0  0  0  0 
  8 11  1  0  0  0  0 
  9 12  1  0  0  0  0 
 10 13  2  0  0  0  0 
 12 14  2  0  0  0  0 
 14 13  1  0  0  0  0 
M  CHG  1   1   1
M  CHG  1   9   1
M  END
> <Name>
Dipyrido(1,2-a:2',1'-c)pyrazinediium, 6,7-dihydro-

> <Source>
DSSTox2DMolFile

> <Tox>
4.119

> <CAS>
2764-72-9

$$$$

  CDK

 10 10  0  0  0  0  0  0  0  0999 V2000
    5.7570   -0.0000    0.0000 N   0  0  0  0  0  0  0  0  0  0  0  0
    6.9112   -0.6635    0.0000 C   0  0  0  0  0  0  0  0  0  0  0  0
    4.6098   -0.6635    0.0000 C   0  0  0  0  0  0  0  0  0  0  0  0
    6.9112   -1.9973    0.0000 C   0  0  0  0  0  0  0  0  0  0  0  0
    4.6098   -1.9973    0.0000 C   0  0  0  0  0  0  0  0  0  0  0  0
    5.7570   -2.6608    0.0000 C   0  0  0  0  0  0  0  0  0  0  0  0
    3.4556   -2.6608    0.0000 C   0  0  0  0  0  0  0  0  0  0  0  0
    2.3014   -1.9973    0.0000 C   0  0  0  0  0  0  0  0  0  0  0  0
    1.1542   -2.6608    0.0000 C   0  0  0  0  0  0  0  0  0  0  0  0
    0.0000   -1.9973    0.0000 O   0  0  0  0  0  0  0  0  0  0  0  0
  1  2  2  0  0  0  0 
  1  3  1  0  0  0  0 
  2  4  1  0  0  0  0 
  3  5  2  0  0  0  0 
  4  6  2  0  0  0  0 
  6  5  1  0  0  0  0 
  5  7  1  0  0  0  0 
  7  8  1  0  0  0  0 
  8  9  1  0  0  0  0 
  9 10  1  0  0  0  0 
M  END
> <Name>
3-(3-Pyridyl)propan-1-ol

> <Source>
DSSTox2DMolFile

> <Tox>
2.961

> <CAS>
2859-67-8

$$$$

  CDK

 14 13  0  0  0  0  0  0  0  0999 V2000
    0.0000   -0.6604    0.0000 C   0  0  0  0  0  0  0  0  0  0  0  0
    1.1556   -0.0000    0.0000 C   0  0  0  0  0  0  0  0  0  0  0  0
    2.3113   -0.6604    0.0000 C   0  0  0  0  0  0  0  0  0  0  0  0
    3.4669   -0.0000    0.0000 C   0  0  0  0  0  0  0  0  0  0  0  0
    4.6225   -0.6604    0.0000 C   0  0  0  0  0  0  0  0  0  0  0  0
    5.7782   -0.0000    0.0000 C   0  0  0  0  0  0  0  0  0  0  0  0
    6.9338   -0.6604    0.0000 C   0  0  0  0  0  0  0  0  0  0  0  0
    8.0744   -0.0000    0.0000 C   0  0  0  0  0  0  0  0  0  0  0  0
    9.2301   -0.6604    0.0000 C   0  0  0  0  0  0  0  0  0  0  0  0
   10.3857   -0.0000    0.0000 C   0  0  0  0  0  0  0  0  0  0  0  0
   11.5413   -0.6604    0.0000 C   0  0  0  0  0  0  0  0  0  0  0  0
   12.6969   -0.0000    0.0000 C   0  0  0  0  0  0  0  0  0  0  0  0
   13.8526   -0.6604    0.0000 C   0  0  0  0  0  0  0  0  0  0  0  0
   15.0082   -0.0000    0.0000 N   0  0  0  0  0  0  0  0  0  0  0  0
  1  2  1  0  0  0  0 
  2  3  1  0  0  0  0 
  3  4  1  0  0  0  0 
  4  5  1  0  0  0  0 
  5  6  1  0  0  0  0 
  6  7  1  0  0  0  0 
  7  8  1  0  0  0  0 
  8  9  1  0  0  0  0 
  9 10  1  0  0  0  0 
 10 11  1  0  0  0  0 
 11 12  1  0  0  0  0 
 12 13  1  0  0  0  0 
 13 14  1  0  0  0  0 
M  END
> <Name>
1-Tridecanamine

> <Source>
DSSTox2DMolFile

> <Tox>
6.484

> <CAS>
2869-34-3

$$$$

  CDK

 16 17  0  0  0  0  0  0  0  0999 V2000
    6.9073   -1.3299    0.0000 C   0  0  0  0  0  0  0  0  0  0  0  0
    8.0599   -1.9989    0.0000 C   0  0  0  0  0  0  0  0  0  0  0  0
    5.7548   -1.9989    0.0000 C   0  0  0  0  0  0  0  0  0  0  0  0
    8.0599   -3.3287    0.0000 C   0  0  0  0  0  0  0  0  0  0  0  0
    5.7548   -3.3287    0.0000 C   0  0  0  0  0  0  0  0  0  0  0  0
    4.6022   -1.3299    0.0000 C   0  0  0  0  0  0  0  0  0  0  0  0
    6.9073   -3.9897    0.0000 C   0  0  0  0  0  0  0  0  0  0  0  0
    4.6022   -3.9897    0.0000 N   0  0  0  0  0  0  0  0  0  0  0  0
    4.6022   -0.0000    0.0000 O   0  0  0  0  0  0  0  0  0  0  0  0
    3.4577   -1.9989    0.0000 C   0  0  0  0  0  0  0  0  0  0  0  0
    3.4577   -3.3287    0.0000 C   0  0  0  0  0  0  0  0  0  0  0  0
    2.3051   -1.3299    0.0000 C   0  0  0  0  0  0  0  0  0  0  0  0
    2.3051   -3.9897    0.0000 C   0  0  0  0  0  0  0  0  0  0  0  0
    1.1526   -1.9989    0.0000 C   0  0  0  0  0  0  0  0  0  0  0  0
    1.1526   -3.3287    0.0000 C   0  0  0  0  0  0  0  0  0  0  0  0
    0.0000   -3.9897    0.0000 Cl  0  0  0  0  0  0  0  0  0  0  0  0
  1  2  2  0  0  0  0 
  1  3  1  0  0  0  0 
  2  4  1  0  0  0  0 
  5  3  2  0  0  0  0 
  3  6  1  0  0  0  0 
  4  7  2  0  0  0  0 
  7  5  1  0  0  0  0 
  5  8  1  0  0  0  0 
  6  9  2  0  0  0  0 
  6 10  1  0  0  0  0 
 10 11  2  0  0  0  0 
 10 12  1  0  0  0  0 
 11 13  1  0  0  0  0 
 14 12  2  0  0  0  0 
 13 15  2  0  0  0  0 
 15 14  1  0  0  0  0 
 15 16  1  0  0  0  0 
M  END
> <Name>
2-Amino-4'-chlorobenzophenone

> <Source>
DSSTox2DMolFile

> <Tox>
5.039

> <CAS>
2894-51-1

$$$$

  CDK

 12 12  0  0  0  0  0  0  0  0999 V2000
    2.6579   -1.1544    0.0000 C   0  0  0  0  0  0  0  0  0  0  0  0
    1.9970   -0.0000    0.0000 Cl  0  0  0  0  0  0  0  0  0  0  0  0
    3.9893   -1.1544    0.0000 C   0  0  0  0  0  0  0  0  0  0  0  0
    1.9970   -2.3042    0.0000 C   0  0  0  0  0  0  0  0  0  0  0  0
    4.6549   -2.3042    0.0000 C   0  0  0  0  0  0  0  0  0  0  0  0
    2.6579   -3.4586    0.0000 C   0  0  0  0  0  0  0  0  0  0  0  0
    0.6657   -2.3042    0.0000 C   0  0  0  0  0  0  0  0  0  0  0  0
    3.9893   -3.4586    0.0000 C   0  0  0  0  0  0  0  0  0  0  0  0
    0.0000   -1.1544    0.0000 O   0  0  0  0  0  0  0  0  0  0  0  0
    0.0000   -3.4586    0.0000 O   0  0  0  0  0  0  0  0  0  0  0  0
    4.6549   -4.6084    0.0000 Cl  0  0  0  0  0  0  0  0  0  0  0  0
    0.6657   -4.6084    0.0000 C   0  0  0  0  0  0  0  0  0  0  0  0
  1  2  1  0  0  0  0 
  1  3  2  0  0  0  0 
  1  4  1  0  0  0  0 
  3  5  1  0  0  0  0 
  6  4  2  0  0  0  0 
  4  7  1  0  0  0  0 
  5  8  2  0  0  0  0 
  8  6  1  0  0  0  0 
  7  9  2  0  0  0  0 
  7 10  1  0  0  0  0 
  8 11  1  0  0  0  0 
 10 12  1  0  0  0  0 
M  END
> <Name>
Benzoic acid, 2,5-dichloro-, methyl ester

> <Source>
DSSTox2DMolFile

> <Tox>
4.169

> <CAS>
2905-69-3

$$$$

  CDK

 18 18  0  0  0  0  0  0  0  0999 V2000
    6.4226   -4.6073    0.0000 S   0  0  0  0  0  0  0  0  0  0  0  0
    5.7591   -3.4555    0.0000 P   0  0  0  0  0  0  0  0  0  0  0  0
    4.6073   -4.1189    0.0000 O   0  0  0  0  0  0  0  0  0  0  0  0
    5.0957   -2.3036    0.0000 O   0  0  0  0  0  0  0  0  0  0  0  0
    6.9109   -2.7920    0.0000 O   0  0  0  0  0  0  0  0  0  0  0  0
    3.4555   -3.4555    0.0000 C   0  0  0  0  0  0  0  0  0  0  0  0
    5.7591   -1.1518    0.0000 C   0  0  0  0  0  0  0  0  0  0  0  0
    8.0627   -3.4555    0.0000 C   0  0  0  0  0  0  0  0  0  0  0  0
    2.3036   -4.1189    0.0000 N   0  0  0  0  0  0  0  0  0  0  0  0
    3.4555   -2.1286    0.0000 C   0  0  0  0  0  0  0  0  0  0  0  0
    5.0957   -0.0000    0.0000 C   0  0  0  0  0  0  0  0  0  0  0  0
    9.2146   -2.7920    0.0000 C   0  0  0  0  0  0  0  0  0  0  0  0
    1.1518   -3.4555    0.0000 C   0  0  0  0  0  0  0  0  0  0  0  0
    2.3036   -1.4559    0.0000 C   0  0  0  0  0  0  0  0  0  0  0  0
    4.6073   -1.4559    0.0000 Cl  0  0  0  0  0  0  0  0  0  0  0  0
    1.1518   -2.1286    0.0000 C   0  0  0  0  0  0  0  0  0  0  0  0
    0.0000   -4.1189    0.0000 Cl  0  0  0  0  0  0  0  0  0  0  0  0
    0.0000   -1.4559    0.0000 Cl  0  0  0  0  0  0  0  0  0  0  0  0
  1  2  2  0  0  0  0 
  2  3  1  0  0  0  0 
  2  4  1  0  0  0  0 
  2  5  1  0  0  0  0 
  3  6  1  0  0  0  0 
  4  7  1  0  0  0  0 
  5  8  1  0  0  0  0 
  6  9  2  0  0  0  0 
  6 10  1  0  0  0  0 
  7 11  1  0  0  0  0 
  8 12  1  0  0  0  0 
  9 13  1  0  0  0  0 
 14 10  2  0  0  0  0 
 10 15  1  0  0  0  0 
 13 16  2  0  0  0  0 
 13 17  1  0  0  0  0 
 16 14  1  0  0  0  0 
 16 18  1  0  0  0  0 
M  END
> <Name>
Phosphorothioic acid, O,O-diethyl O-(3,5,6-trichloro-2-pyridinyl) ester

> <Source>
DSSTox2DMolFile

> <Tox>
6.356

> <CAS>
2921-88-2

$$$$

  CDK

 12 12  0  0  0  0  0  0  0  0999 V2000
    1.9922   -2.3033    0.0000 C   0  0  0  0  0  0  0  0  0  0  0  0
    1.3282   -1.1487    0.0000 O   0  0  0  0  0  0  0  0  0  0  0  0
    3.3264   -2.3033    0.0000 C   0  0  0  0  0  0  0  0  0  0  0  0
    1.3282   -3.4520    0.0000 C   0  0  0  0  0  0  0  0  0  0  0  0
    1.9922   -0.0000    0.0000 C   0  0  0  0  0  0  0  0  0  0  0  0
    3.9905   -3.4520    0.0000 C   0  0  0  0  0  0  0  0  0  0  0  0
    1.9922   -4.6067    0.0000 C   0  0  0  0  0  0  0  0  0  0  0  0
    0.0000   -3.4520    0.0000 O   0  0  0  0  0  0  0  0  0  0  0  0
    5.3186   -3.4520    0.0000 C   0  0  0  0  0  0  0  0  0  0  0  0
    3.3264   -4.6067    0.0000 C   0  0  0  0  0  0  0  0  0  0  0  0
    1.3282   -5.7554    0.0000 Br  0  0  0  0  0  0  0  0  0  0  0  0
    5.9827   -4.6067    0.0000 O   0  0  0  0  0  0  0  0  0  0  0  0
  1  2  1  0  0  0  0 
  1  3  2  0  0  0  0 
  1  4  1  0  0  0  0 
  2  5  1  0  0  0  0 
  3  6  1  0  0  0  0 
  7  4  2  0  0  0  0 
  4  8  1  0  0  0  0 
  6  9  1  0  0  0  0 
  6 10  2  0  0  0  0 
 10  7  1  0  0  0  0 
  7 11  1  0  0  0  0 
  9 12  2  0  0  0  0 
M  END
> <Name>
Benzaldehyde, 3-bromo-4-hydroxy-5-methoxy-

> <Source>
DSSTox2DMolFile

> <Tox>
3.588

> <CAS>
2973-76-4

$$$$

  CDK

 11 11  0  0  0  0  0  0  0  0999 V2000
    0.0000   -1.9968    0.0000 C   0  0  0  0  0  0  0  0  0  0  0  0
    1.1539   -2.6601    0.0000 C   0  0  0  0  0  0  0  0  0  0  0  0
    2.3008   -1.9968    0.0000 C   0  0  0  0  0  0  0  0  0  0  0  0
    2.3008   -0.6633    0.0000 O   0  0  0  0  0  0  0  0  0  0  0  0
    3.4547   -2.6601    0.0000 O   0  0  0  0  0  0  0  0  0  0  0  0
    4.6086   -1.9968    0.0000 C   0  0  0  0  0  0  0  0  0  0  0  0
    4.6086   -0.6633    0.0000 C   0  0  0  0  0  0  0  0  0  0  0  0
    5.7555   -2.6601    0.0000 C   0  0  0  0  0  0  0  0  0  0  0  0
    5.7555   -0.0000    0.0000 C   0  0  0  0  0  0  0  0  0  0  0  0
    6.9094   -1.9968    0.0000 C   0  0  0  0  0  0  0  0  0  0  0  0
    6.9094   -0.6633    0.0000 C   0  0  0  0  0  0  0  0  0  0  0  0
  1  2  2  0  0  0  0 
  2  3  1  0  0  0  0 
  3  4  2  0  0  0  0 
  3  5  1  0  0  0  0 
  5  6  1  0  0  0  0 
  6  7  1  0  0  0  0 
  6  8  1  0  0  0  0 
  7  9  1  0  0  0  0 
 10  8  1  0  0  0  0 
  9 11  1  0  0  0  0 
 11 10  1  0  0  0  0 
M  END
> <Name>
2-Propenoic acid, cyclohexyl ester

> <Source>
DSSTox2DMolFile

> <Tox>
5.018

> <CAS>
3066-71-5

$$$$

  CDK

  5  4  0  0  0  0  0  0  0  0999 V2000
    0.0000   -0.0000    0.0000 N   0  0  0  0  0  0  0  0  0  0  0  0
    0.6633   -1.1503    0.0000 C   0  0  0  0  0  0  0  0  0  0  0  0
    1.3300   -2.3041    0.0000 C   0  0  0  0  0  0  0  0  0  0  0  0
    2.6600   -2.3041    0.0000 Br  0  0  0  0  0  0  0  0  0  0  0  0
    0.6633   -3.4545    0.0000 Br  0  0  0  0  0  0  0  0  0  0  0  0
  1  2  3  0  0  0  0 
  2  3  1  0  0  0  0 
  3  4  1  0  0  0  0 
  3  5  1  0  0  0  0 
M  END
> <Name>
Acetonitrile, dibromo-

> <Source>
DSSTox2DMolFile

> <Tox>
5.558

> <CAS>
3252-43-5

$$$$

  CDK

 27 28  0  0  0  0  0  0  0  0999 V2000
   11.5227   -0.6778    0.0000 C   0  0  0  0  0  0  0  0  0  0  0  0
   11.5227   -2.0011    0.0000 C   0  0  0  0  0  0  0  0  0  0  0  0
   10.3769   -0.0000    0.0000 C   0  0  0  0  0  0  0  0  0  0  0  0
   10.3769   -2.6628    0.0000 C   0  0  0  0  0  0  0  0  0  0  0  0
   12.6685   -2.6628    0.0000 O   0  0  0  0  0  0  0  0  0  0  0  0
    9.2311   -0.6778    0.0000 C   0  0  0  0  0  0  0  0  0  0  0  0
    9.2311   -2.0011    0.0000 C   0  0  0  0  0  0  0  0  0  0  0  0
   13.8305   -2.0011    0.0000 P   0  0  0  0  0  0  0  0  0  0  0  0
    8.0691   -0.0000    0.0000 S   0  0  0  0  0  0  0  0  0  0  0  0
   13.1688   -0.8553    0.0000 S   0  0  0  0  0  0  0  0  0  0  0  0
   14.5083   -3.1631    0.0000 O   0  0  0  0  0  0  0  0  0  0  0  0
   14.9763   -1.3395    0.0000 O   0  0  0  0  0  0  0  0  0  0  0  0
    6.9072   -0.6778    0.0000 C   0  0  0  0  0  0  0  0  0  0  0  0
   15.8316   -3.1631    0.0000 C   0  0  0  0  0  0  0  0  0  0  0  0
   16.1383   -2.0011    0.0000 C   0  0  0  0  0  0  0  0  0  0  0  0
    6.9072   -2.0011    0.0000 C   0  0  0  0  0  0  0  0  0  0  0  0
    5.7614   -0.0000    0.0000 C   0  0  0  0  0  0  0  0  0  0  0  0
    5.7614   -2.6628    0.0000 C   0  0  0  0  0  0  0  0  0  0  0  0
    4.5994   -0.6778    0.0000 C   0  0  0  0  0  0  0  0  0  0  0  0
    4.5994   -2.0011    0.0000 C   0  0  0  0  0  0  0  0  0  0  0  0
    3.4536   -2.6628    0.0000 O   0  0  0  0  0  0  0  0  0  0  0  0
    2.2916   -2.0011    0.0000 P   0  0  0  0  0  0  0  0  0  0  0  0
    1.6300   -3.1631    0.0000 O   0  0  0  0  0  0  0  0  0  0  0  0
    1.1620   -1.3395    0.0000 O   0  0  0  0  0  0  0  0  0  0  0  0
    2.9694   -0.8553    0.0000 S   0  0  0  0  0  0  0  0  0  0  0  0
    0.3066   -3.1631    0.0000 C   0  0  0  0  0  0  0  0  0  0  0  0
    0.0000   -2.0011    0.0000 C   0  0  0  0  0  0  0  0  0  0  0  0
  1  2  1  0  0  0  0 
  1  3  2  0  0  0  0 
  2  4  2  0  0  0  0 
  2  5  1  0  0  0  0 
  3  6  1  0  0  0  0 
  4  7  1  0  0  0  0 
  5  8  1  0  0  0  0 
  6  7  2  0  0  0  0 
  6  9  1  0  0  0  0 
  8 10  2  0  0  0  0 
  8 11  1  0  0  0  0 
  8 12  1  0  0  0  0 
 13  9  1  0  0  0  0 
 11 14  1  0  0  0  0 
 12 15  1  0  0  0  0 
 13 16  1  0  0  0  0 
 13 17  2  0  0  0  0 
 16 18  2  0  0  0  0 
 17 19  1  0  0  0  0 
 18 20  1  0  0  0  0 
 19 20  2  0  0  0  0 
 20 21  1  0  0  0  0 
 21 22  1  0  0  0  0 
 22 23  1  0  0  0  0 
 22 24  1  0  0  0  0 
 22 25  2  0  0  0  0 
 23 26  1  0  0  0  0 
 24 27  1  0  0  0  0 
M  END
> <Name>
Phosphorothioic acid, O,O'-(thiodi-4,1-phenylene) O,O,O',O'-tetramethyl ester

> <Source>
DSSTox2DMolFile

> <Tox>
4.136

> <CAS>
3383-96-8

$$$$

  CDK

 10 10  0  0  0  0  0  0  0  0999 V2000
    4.6084   -0.0000    0.0000 O   0  0  0  0  0  0  0  0  0  0  0  0
    3.4563   -0.6636    0.0000 C   0  0  0  0  0  0  0  0  0  0  0  0
    3.4563   -1.9954    0.0000 C   0  0  0  0  0  0  0  0  0  0  0  0
    2.3042   -0.0000    0.0000 C   0  0  0  0  0  0  0  0  0  0  0  0
    4.6084   -2.6590    0.0000 O   0  0  0  0  0  0  0  0  0  0  0  0
    2.3042   -2.6590    0.0000 C   0  0  0  0  0  0  0  0  0  0  0  0
    1.1521   -0.6636    0.0000 C   0  0  0  0  0  0  0  0  0  0  0  0
    1.1521   -1.9954    0.0000 C   0  0  0  0  0  0  0  0  0  0  0  0
    0.0000   -0.0000    0.0000 Cl  0  0  0  0  0  0  0  0  0  0  0  0
    0.0000   -2.6590    0.0000 Cl  0  0  0  0  0  0  0  0  0  0  0  0
  1  2  1  0  0  0  0 
  2  3  2  0  0  0  0 
  2  4  1  0  0  0  0 
  3  5  1  0  0  0  0 
  3  6  1  0  0  0  0 
  7  4  2  0  0  0  0 
  6  8  2  0  0  0  0 
  8  7  1  0  0  0  0 
  7  9  1  0  0  0  0 
  8 10  1  0  0  0  0 
M  END
> <Name>
1,2-Benzenediol, 4,5-dichloro-

> <Source>
DSSTox2DMolFile

> <Tox>
5.303

> <CAS>
3428-24-8

$$$$

  CDK

 18 20  0  0  0  0  0  0  0  0999 V2000
    4.6060   -2.6530    0.0000 N   0  0  0  0  0  0  0  0  0  0  0  0
    3.4545   -1.9898    0.0000 C   0  0  0  0  0  0  0  0  0  0  0  0
    5.7575   -1.9898    0.0000 C   0  0  0  0  0  0  0  0  0  0  0  0
    2.3030   -2.6530    0.0000 C   0  0  0  0  0  0  0  0  0  0  0  0
    3.4545   -0.6633    0.0000 C   0  0  0  0  0  0  0  0  0  0  0  0
    5.7575   -0.6633    0.0000 C   0  0  0  0  0  0  0  0  0  0  0  0
    6.9090   -2.6530    0.0000 C   0  0  0  0  0  0  0  0  0  0  0  0
    2.3030   -3.9888    0.0000 C   0  0  0  0  0  0  0  0  0  0  0  0
    1.1515   -1.9898    0.0000 C   0  0  0  0  0  0  0  0  0  0  0  0
    4.6060   -0.0000    0.0000 C   0  0  0  0  0  0  0  0  0  0  0  0
    8.0605   -1.9898    0.0000 C   0  0  0  0  0  0  0  0  0  0  0  0
    6.9090   -3.9888    0.0000 C   0  0  0  0  0  0  0  0  0  0  0  0
    1.1515   -4.6520    0.0000 C   0  0  0  0  0  0  0  0  0  0  0  0
    0.0000   -2.6530    0.0000 C   0  0  0  0  0  0  0  0  0  0  0  0
    9.2120   -2.6530    0.0000 C   0  0  0  0  0  0  0  0  0  0  0  0
    8.0605   -4.6520    0.0000 C   0  0  0  0  0  0  0  0  0  0  0  0
    0.0000   -3.9888    0.0000 C   0  0  0  0  0  0  0  0  0  0  0  0
    9.2120   -3.9888    0.0000 C   0  0  0  0  0  0  0  0  0  0  0  0
  1  2  2  0  0  0  0 
  1  3  1  0  0  0  0 
  2  4  1  0  0  0  0 
  2  5  1  0  0  0  0 
  6  3  2  0  0  0  0 
  3  7  1  0  0  0  0 
  4  8  2  0  0  0  0 
  4  9  1  0  0  0  0 
  5 10  2  0  0  0  0 
 10  6  1  0  0  0  0 
  7 11  2  0  0  0  0 
  7 12  1  0  0  0  0 
  8 13  1  0  0  0  0 
 14  9  2  0  0  0  0 
 11 15  1  0  0  0  0 
 16 12  2  0  0  0  0 
 13 17  2  0  0  0  0 
 17 14  1  0  0  0  0 
 15 18  2  0  0  0  0 
 18 16  1  0  0  0  0 
M  END
> <Name>
Pyridine, 2,6-diphenyl-

> <Source>
DSSTox2DMolFile

> <Tox>
6.038

> <CAS>
3558-69-8

$$$$

  CDK

 13 13  0  0  0  0  0  0  0  0999 V2000
   -0.4512   -2.5184    0.0000 Cl  0  0  0  0  0  0  0  0  0  0  0  0
   -0.4512   -1.6934    0.0000 C   0  0  0  0  0  0  0  0  0  0  0  0
    0.2632   -1.2809    0.0000 C   0  0  0  0  0  0  0  0  0  0  0  0
   -1.1657   -1.2809    0.0000 C   0  0  0  0  0  0  0  0  0  0  0  0
    0.2632   -0.4559    0.0000 C   0  0  0  0  0  0  0  0  0  0  0  0
   -1.1657   -0.4559    0.0000 C   0  0  0  0  0  0  0  0  0  0  0  0
    0.9777   -0.0434    0.0000 Cl  0  0  0  0  0  0  0  0  0  0  0  0
   -0.4512   -0.0434    0.0000 C   0  0  0  0  0  0  0  0  0  0  0  0
   -0.4512    0.7816    0.0000 O   0  0  0  0  0  0  0  0  0  0  0  0
    0.2632    1.1941    0.0000 S   0  0  0  0  0  0  0  0  0  0  0  0
   -0.1493    1.9085    0.0000 O   0  0  0  0  0  0  0  0  0  0  0  0
    0.6757    0.4796    0.0000 O   0  0  0  0  0  0  0  0  0  0  0  0
    0.9777    1.6066    0.0000 C   0  0  0  0  0  0  0  0  0  0  0  0
  1  2  1  0  0  0  0 
  2  3  1  0  0  0  0 
  2  4  2  0  0  0  0 
  3  5  2  0  0  0  0 
  4  6  1  0  0  0  0 
  5  7  1  0  0  0  0 
  5  8  1  0  0  0  0 
  8  6  2  0  0  0  0 
  8  9  1  0  0  0  0 
  9 10  1  0  0  0  0 
 10 11  2  0  0  0  0 
 10 12  2  0  0  0  0 
 10 13  1  0  0  0  0 
M  END
> <Name>
Phenol, 2,4-dichloro-, methanesulfonate

> <Source>
Smiles

> <Tox>
4.739

> <CAS>
3687-13-6

$$$$

  CDK

 14 14  0  0  0  0  0  0  0  0999 V2000
    1.1543   -0.0000    0.0000 Cl  0  0  0  0  0  0  0  0  0  0  0  0
    2.3017   -0.6636    0.0000 C   0  0  0  0  0  0  0  0  0  0  0  0
    3.4561   -0.0000    0.0000 C   0  0  0  0  0  0  0  0  0  0  0  0
    2.3017   -1.9907    0.0000 C   0  0  0  0  0  0  0  0  0  0  0  0
    4.6104   -0.6636    0.0000 C   0  0  0  0  0  0  0  0  0  0  0  0
    3.4561   -2.6612    0.0000 C   0  0  0  0  0  0  0  0  0  0  0  0
    1.1543   -2.6612    0.0000 N   0  0  0  0  0  0  0  0  0  0  0  0
    5.7578   -0.0000    0.0000 Cl  0  0  0  0  0  0  0  0  0  0  0  0
    4.6104   -1.9907    0.0000 C   0  0  0  0  0  0  0  0  0  0  0  0
    0.0000   -1.9907    0.0000 O   0  0  0  0  0  0  0  0  0  0  0  0
    1.1543   -3.9883    0.0000 O   0  0  0  0  0  0  0  0  0  0  0  0
    5.7578   -2.6612    0.0000 N   0  0  0  0  0  0  0  0  0  0  0  0
    6.9122   -1.9907    0.0000 O   0  0  0  0  0  0  0  0  0  0  0  0
    5.7578   -3.9883    0.0000 O   0  0  0  0  0  0  0  0  0  0  0  0
  1  2  1  0  0  0  0 
  2  3  2  0  0  0  0 
  2  4  1  0  0  0  0 
  3  5  1  0  0  0  0 
  6  4  2  0  0  0  0 
  4  7  1  0  0  0  0 
  5  8  1  0  0  0  0 
  5  9  2  0  0  0  0 
  9  6  1  0  0  0  0 
  7 10  1  0  0  0  0 
  7 11  2  0  0  0  0 
  9 12  1  0  0  0  0 
 12 13  1  0  0  0  0 
 12 14  2  0  0  0  0 
M  CHG  1   7   1
M  CHG  1  10  -1
M  CHG  1  12   1
M  CHG  1  13  -1
M  END
> <Name>
Benzene, 1,5-dichloro-2,4-dinitro-

> <Source>
DSSTox2DMolFile

> <Tox>
6.784

> <CAS>
3698-83-7

$$$$

  CDK

 16 17  0  0  0  0  0  0  0  0999 V2000
    3.9917   -2.6611    0.0000 C   0  0  0  0  0  0  0  0  0  0  0  0
    3.9917   -3.9917    0.0000 C   0  0  0  0  0  0  0  0  0  0  0  0
    2.6611   -2.6611    0.0000 C   0  0  0  0  0  0  0  0  0  0  0  0
    5.3222   -2.6611    0.0000 O   0  0  0  0  0  0  0  0  0  0  0  0
    3.9917   -1.3306    0.0000 C   0  0  0  0  0  0  0  0  0  0  0  0
    5.1426   -4.6569    0.0000 C   0  0  0  0  0  0  0  0  0  0  0  0
    2.8407   -4.6569    0.0000 C   0  0  0  0  0  0  0  0  0  0  0  0
    1.9958   -3.8120    0.0000 C   0  0  0  0  0  0  0  0  0  0  0  0
    1.9958   -1.5102    0.0000 C   0  0  0  0  0  0  0  0  0  0  0  0
    3.9917   -0.0000    0.0000 C   0  0  0  0  0  0  0  0  0  0  0  0
    5.1426   -5.9875    0.0000 C   0  0  0  0  0  0  0  0  0  0  0  0
    2.8407   -5.9875    0.0000 C   0  0  0  0  0  0  0  0  0  0  0  0
    0.6653   -3.8120    0.0000 C   0  0  0  0  0  0  0  0  0  0  0  0
    0.6653   -1.5102    0.0000 C   0  0  0  0  0  0  0  0  0  0  0  0
    3.9917   -6.6528    0.0000 C   0  0  0  0  0  0  0  0  0  0  0  0
    0.0000   -2.6611    0.0000 C   0  0  0  0  0  0  0  0  0  0  0  0
  1  2  1  0  0  0  0 
  1  3  1  0  0  0  0 
  1  4  1  0  0  0  0 
  1  5  1  0  0  0  0 
  2  6  2  0  0  0  0 
  2  7  1  0  0  0  0 
  3  8  2  0  0  0  0 
  3  9  1  0  0  0  0 
  5 10  3  0  0  0  0 
  6 11  1  0  0  0  0 
 12  7  2  0  0  0  0 
  8 13  1  0  0  0  0 
 14  9  2  0  0  0  0 
 11 15  2  0  0  0  0 
 15 12  1  0  0  0  0 
 13 16  2  0  0  0  0 
 16 14  1  0  0  0  0 
M  END
> <Name>
2-Propyn-1-ol, 1,1-diphenyl- (8CI)

> <Source>
DSSTox2DMolFile

> <Tox>
4.273

> <CAS>
3923-52-2

$$$$

  CDK

  8  7  0  0  0  0  0  0  0  0999 V2000
    1.9946   -0.0000    0.0000 C   0  0  0  0  0  0  0  0  0  0  0  0
    1.3313   -1.1516    0.0000 C   0  0  0  0  0  0  0  0  0  0  0  0
    1.9946   -2.3033    0.0000 C   0  0  0  0  0  0  0  0  0  0  0  0
    3.3259   -2.3033    0.0000 C   0  0  0  0  0  0  0  0  0  0  0  0
    1.3313   -3.4549    0.0000 C   0  0  0  0  0  0  0  0  0  0  0  0
    0.0000   -3.4549    0.0000 C   0  0  0  0  0  0  0  0  0  0  0  0
    1.9946   -4.6066    0.0000 C   0  0  0  0  0  0  0  0  0  0  0  0
    3.3259   -4.6066    0.0000 O   0  0  0  0  0  0  0  0  0  0  0  0
  1  2  1  0  0  0  0 
  2  3  1  0  0  0  0 
  3  4  1  0  0  0  0 
  3  5  1  0  0  0  0 
  5  6  1  0  0  0  0 
  5  7  1  0  0  0  0 
  7  8  2  0  0  0  0 
M  END
> <Name>
2,3-dimethylpentanal

> <Source>
DSSTox2DMolFile

> <Tox>
3.853

> <CAS>
3944-76-1

$$$$

  CDK

 11 10  0  0  0  0  0  0  0  0999 V2000
   10.3589   -0.0000    0.0000 C   0  0  0  0  0  0  0  0  0  0  0  0
   11.5099   -0.6676    0.0000 O   0  0  0  0  0  0  0  0  0  0  0  0
    9.2079   -0.6676    0.0000 C   0  0  0  0  0  0  0  0  0  0  0  0
    8.0569   -1.3236    0.0000 C   0  0  0  0  0  0  0  0  0  0  0  0
    6.9059   -1.9912    0.0000 C   0  0  0  0  0  0  0  0  0  0  0  0
    5.7549   -1.3236    0.0000 C   0  0  0  0  0  0  0  0  0  0  0  0
    4.6040   -1.9912    0.0000 C   0  0  0  0  0  0  0  0  0  0  0  0
    3.4530   -1.3236    0.0000 C   0  0  0  0  0  0  0  0  0  0  0  0
    2.3020   -1.9912    0.0000 C   0  0  0  0  0  0  0  0  0  0  0  0
    1.1510   -1.3236    0.0000 C   0  0  0  0  0  0  0  0  0  0  0  0
    0.0000   -1.9912    0.0000 C   0  0  0  0  0  0  0  0  0  0  0  0
  1  2  1  0  0  0  0 
  1  3  1  0  0  0  0 
  3  4  3  0  0  0  0 
  4  5  1  0  0  0  0 
  5  6  1  0  0  0  0 
  6  7  1  0  0  0  0 
  7  8  1  0  0  0  0 
  8  9  1  0  0  0  0 
  9 10  1  0  0  0  0 
 10 11  1  0  0  0  0 
M  END
> <Name>
2-Decyn-1-ol

> <Source>
DSSTox2DMolFile

> <Tox>
5.159

> <CAS>
4117-14-0

$$$$

  CDK

 31 30  0  0  0  0  0  0  0  0999 V2000
    4.5963   -1.3388    0.0000 C   0  0  0  0  0  0  0  0  0  0  0  0
    5.7419   -1.9738    0.0000 C   0  0  0  0  0  0  0  0  0  0  0  0
    3.3954   -1.9738    0.0000 S   0  0  0  0  0  0  0  0  0  0  0  0
    4.5963   -0.0000    0.0000 F   0  0  0  0  0  0  0  0  0  0  0  0
    4.5963   -2.6639    0.0000 F   0  0  0  0  0  0  0  0  0  0  0  0
    6.8599   -1.3388    0.0000 C   0  0  0  0  0  0  0  0  0  0  0  0
    5.7419   -3.3126    0.0000 F   0  0  0  0  0  0  0  0  0  0  0  0
    5.7419   -0.6487    0.0000 F   0  0  0  0  0  0  0  0  0  0  0  0
    2.6639   -0.7453    0.0000 O   0  0  0  0  0  0  0  0  0  0  0  0
    2.3050   -2.6225    0.0000 N   0  0  0  0  0  0  0  0  0  0  0  0
    4.0580   -3.1332    0.0000 O   0  0  0  0  0  0  0  0  0  0  0  0
    8.0607   -1.9738    0.0000 C   0  0  0  0  0  0  0  0  0  0  0  0
    6.8599   -0.0000    0.0000 F   0  0  0  0  0  0  0  0  0  0  0  0
    6.8599   -2.6639    0.0000 F   0  0  0  0  0  0  0  0  0  0  0  0
    1.1456   -1.9738    0.0000 C   0  0  0  0  0  0  0  0  0  0  0  0
    9.2063   -1.3388    0.0000 C   0  0  0  0  0  0  0  0  0  0  0  0
    8.0607   -3.3126    0.0000 F   0  0  0  0  0  0  0  0  0  0  0  0
    8.0607   -0.6487    0.0000 F   0  0  0  0  0  0  0  0  0  0  0  0
    0.0000   -2.6225    0.0000 C   0  0  0  0  0  0  0  0  0  0  0  0
   10.3657   -1.9738    0.0000 C   0  0  0  0  0  0  0  0  0  0  0  0
    9.2063   -0.0000    0.0000 F   0  0  0  0  0  0  0  0  0  0  0  0
    9.2063   -2.6639    0.0000 F   0  0  0  0  0  0  0  0  0  0  0  0
   11.4975   -1.3388    0.0000 C   0  0  0  0  0  0  0  0  0  0  0  0
   10.3657   -3.3126    0.0000 F   0  0  0  0  0  0  0  0  0  0  0  0
   10.3657   -0.6487    0.0000 F   0  0  0  0  0  0  0  0  0  0  0  0
   12.6569   -1.9738    0.0000 C   0  0  0  0  0  0  0  0  0  0  0  0
   11.4975   -0.0000    0.0000 F   0  0  0  0  0  0  0  0  0  0  0  0
   12.6569   -0.6487    0.0000 F   0  0  0  0  0  0  0  0  0  0  0  0
   13.8026   -1.3388    0.0000 F   0  0  0  0  0  0  0  0  0  0  0  0
   12.6569   -3.3126    0.0000 F   0  0  0  0  0  0  0  0  0  0  0  0
   13.8026   -2.6639    0.0000 F   0  0  0  0  0  0  0  0  0  0  0  0
  1  2  1  0  0  0  0 
  1  3  1  0  0  0  0 
  1  4  1  0  0  0  0 
  1  5  1  0  0  0  0 
  2  6  1  0  0  0  0 
  2  7  1  0  0  0  0 
  2  8  1  0  0  0  0 
  3  9  2  0  0  0  0 
  3 10  1  0  0  0  0 
  3 11  2  0  0  0  0 
  6 12  1  0  0  0  0 
  6 13  1  0  0  0  0 
  6 14  1  0  0  0  0 
 10 15  1  0  0  0  0 
 12 16  1  0  0  0  0 
 12 17  1  0  0  0  0 
 12 18  1  0  0  0  0 
 15 19  1  0  0  0  0 
 16 20  1  0  0  0  0 
 16 21  1  0  0  0  0 
 16 22  1  0  0  0  0 
 20 23  1  0  0  0  0 
 20 24  1  0  0  0  0 
 20 25  1  0  0  0  0 
 23 26  1  0  0  0  0 
 23 27  1  0  0  0  0 
 23 28  1  0  0  0  0 
 26 29  1  0  0  0  0 
 26 30  1  0  0  0  0 
 26 31  1  0  0  0  0 
M  END
> <Name>
1-Octanesulfonamide, N-ethyl-1,1,2,2,3,3,4,4,5,5,6,6,7,7,8,8,8-heptadecafluoro-

> <Source>
DSSTox2DMolFile

> <Tox>
6.446

> <CAS>
4151-50-2

$$$$

  CDK

  5  4  0  0  0  0  0  0  0  0999 V2000
    2.3050   -0.6638    0.0000 C   0  0  0  0  0  0  0  0  0  0  0  0
    1.1525   -0.0000    0.0000 C   0  0  0  0  0  0  0  0  0  0  0  0
    3.4575   -0.0000    0.0000 C   0  0  0  0  0  0  0  0  0  0  0  0
    0.0000   -0.6638    0.0000 C   0  0  0  0  0  0  0  0  0  0  0  0
    4.6099   -0.6638    0.0000 O   0  0  0  0  0  0  0  0  0  0  0  0
  1  2  2  0  0  0  0 
  1  3  1  0  0  0  0 
  2  4  1  0  0  0  0 
  3  5  2  0  0  0  0 
M  END
> <Name>
Crotonaldehyde

> <Source>
DSSTox2DMolFile

> <Tox>
4.921

> <CAS>
4170-30-3

$$$$

  CDK

 11 11  0  0  0  0  0  0  0  0999 V2000
    0.0000   -0.0000    0.0000 C   0  0  0  0  0  0  0  0  0  0  0  0
    1.3316   -0.0000    0.0000 C   0  0  0  0  0  0  0  0  0  0  0  0
    1.9934   -1.1561    0.0000 C   0  0  0  0  0  0  0  0  0  0  0  0
    3.3249   -1.1561    0.0000 C   0  0  0  0  0  0  0  0  0  0  0  0
    3.9867   -0.0000    0.0000 C   0  0  0  0  0  0  0  0  0  0  0  0
    3.9867   -2.3043    0.0000 C   0  0  0  0  0  0  0  0  0  0  0  0
    5.3183   -0.0000    0.0000 C   0  0  0  0  0  0  0  0  0  0  0  0
    5.3183   -2.3043    0.0000 C   0  0  0  0  0  0  0  0  0  0  0  0
    5.9801   -1.1561    0.0000 C   0  0  0  0  0  0  0  0  0  0  0  0
    7.3116   -1.1561    0.0000 O   0  0  0  0  0  0  0  0  0  0  0  0
    7.9734   -2.3043    0.0000 C   0  0  0  0  0  0  0  0  0  0  0  0
  1  2  1  0  0  0  0 
  2  3  2  0  0  0  0 
  3  4  1  0  0  0  0 
  4  5  2  0  0  0  0 
  4  6  1  0  0  0  0 
  5  7  1  0  0  0  0 
  8  6  2  0  0  0  0 
  7  9  2  0  0  0  0 
  9  8  1  0  0  0  0 
  9 10  1  0  0  0  0 
 10 11  1  0  0  0  0 
M  END
> <Name>
Benzene, 1-methoxy-4-(1-propenyl)-, (E)-

> <Source>
DSSTox2DMolFile

> <Tox>
7.285

> <CAS>
4180-23-8

$$$$

  CDK

  8  7  0  0  0  0  0  0  0  0999 V2000
    4.6103   -0.0000    0.0000 C   0  0  0  0  0  0  0  0  0  0  0  0
    4.6103   -1.3312    0.0000 C   0  0  0  0  0  0  0  0  0  0  0  0
    5.7628   -1.9939    0.0000 C   0  0  0  0  0  0  0  0  0  0  0  0
    3.4577   -1.9939    0.0000 S   0  0  0  0  0  0  0  0  0  0  0  0
    2.3051   -1.3312    0.0000 S   0  0  0  0  0  0  0  0  0  0  0  0
    1.1526   -1.9939    0.0000 C   0  0  0  0  0  0  0  0  0  0  0  0
    1.1526   -3.3252    0.0000 C   0  0  0  0  0  0  0  0  0  0  0  0
    0.0000   -1.3312    0.0000 C   0  0  0  0  0  0  0  0  0  0  0  0
  1  2  1  0  0  0  0 
  2  3  1  0  0  0  0 
  2  4  1  0  0  0  0 
  4  5  1  0  0  0  0 
  5  6  1  0  0  0  0 
  6  7  1  0  0  0  0 
  6  8  1  0  0  0  0 
M  END
> <Name>
Isopropyl disulfide (8CI)

> <Source>
DSSTox2DMolFile

> <Tox>
4.257

> <CAS>
4253-89-8

$$$$

  CDK

  7  7  0  0  0  0  0  0  0  0999 V2000
   -1.7398    0.8575   -0.0099 O   0  0  0  0  0  0  0  0  0  0  0  0
   -0.3854    1.0058    0.1813 C   0  0  0  0  0  0  0  0  0  0  0  0
   -1.9805   -0.4918   -0.1635 C   0  0  0  0  0  0  0  0  0  0  0  0
    0.2344   -0.2219    0.1455 C   0  0  0  0  0  0  0  0  0  0  0  0
   -0.8069   -1.1969   -0.0780 C   0  0  0  0  0  0  0  0  0  0  0  0
    1.6760   -0.5364    0.3202 C   0  0  0  0  0  0  0  0  0  0  0  0
    2.5339    0.3899   -0.2928 O   0  0  0  0  0  0  0  0  0  0  0  0
  1  2  1  0  0  0  0 
  1  3  1  0  0  0  0 
  2  4  2  0  0  0  0 
  5  3  2  0  0  0  0 
  4  5  1  0  0  0  0 
  4  6  1  0  0  0  0 
  6  7  1  0  0  0  0 
M  END
> <Name>
Furan-3-methanol

> <Source>
DougDB3DMolFile

> <Tox>
2.286

> <CAS>
4412-91-3

$$$$

  CDK

 14 14  0  0  0  0  0  0  0  0999 V2000
    4.6558   -3.4539    0.0000 C   0  0  0  0  0  0  0  0  0  0  0  0
    5.9821   -3.4539    0.0000 C   0  0  0  0  0  0  0  0  0  0  0  0
    3.9858   -4.6074    0.0000 C   0  0  0  0  0  0  0  0  0  0  0  0
    3.9858   -2.3003    0.0000 C   0  0  0  0  0  0  0  0  0  0  0  0
    6.6452   -4.6074    0.0000 O   0  0  0  0  0  0  0  0  0  0  0  0
    4.6558   -5.7541    0.0000 O   0  0  0  0  0  0  0  0  0  0  0  0
    2.6595   -4.6074    0.0000 C   0  0  0  0  0  0  0  0  0  0  0  0
    2.6595   -2.3003    0.0000 C   0  0  0  0  0  0  0  0  0  0  0  0
    3.9858   -6.9077    0.0000 C   0  0  0  0  0  0  0  0  0  0  0  0
    1.9963   -3.4539    0.0000 C   0  0  0  0  0  0  0  0  0  0  0  0
    1.9963   -1.1536    0.0000 O   0  0  0  0  0  0  0  0  0  0  0  0
    0.6631   -3.4539    0.0000 O   0  0  0  0  0  0  0  0  0  0  0  0
    2.6595   -0.0000    0.0000 C   0  0  0  0  0  0  0  0  0  0  0  0
    0.0000   -2.3003    0.0000 C   0  0  0  0  0  0  0  0  0  0  0  0
  1  2  1  0  0  0  0 
  1  3  2  0  0  0  0 
  1  4  1  0  0  0  0 
  2  5  2  0  0  0  0 
  3  6  1  0  0  0  0 
  3  7  1  0  0  0  0 
  8  4  2  0  0  0  0 
  6  9  1  0  0  0  0 
  7 10  2  0  0  0  0 
 10  8  1  0  0  0  0 
  8 11  1  0  0  0  0 
 10 12  1  0  0  0  0 
 11 13  1  0  0  0  0 
 12 14  1  0  0  0  0 
M  END
> <Name>
Benzaldehyde, 2,4,5-trimethoxy-

> <Source>
DSSTox2DMolFile

> <Tox>
3.598

> <CAS>
4460-86-0

$$$$

  CDK

 11 10  0  0  0  0  0  0  0  0999 V2000
   -1.9858    0.6101   -0.0364 C   0  0  0  0  0  0  0  0  0  0  0  0
   -0.9728   -0.1717   -0.8329 C   0  0  0  0  0  0  0  0  0  0  0  0
   -1.8527    1.3162    0.9484 O   0  0  0  0  0  0  0  0  0  0  0  0
   -3.2514    0.5396   -0.5157 O   0  0  0  0  0  0  0  0  0  0  0  0
   -0.0002   -1.0246    0.0003 C   0  0  0  0  0  0  0  0  0  0  0  0
    0.9731   -0.1720    0.8330 C   0  0  0  0  0  0  0  0  0  0  0  0
   -0.7881   -1.9203    0.9601 C   0  0  0  0  0  0  0  0  0  0  0  0
    0.7870   -1.9214   -0.9590 C   0  0  0  0  0  0  0  0  0  0  0  0
    1.9862    0.6093    0.0360 C   0  0  0  0  0  0  0  0  0  0  0  0
    1.8532    1.3129   -0.9506 O   0  0  0  0  0  0  0  0  0  0  0  0
    3.2515    0.5411    0.5166 O   0  0  0  0  0  0  0  0  0  0  0  0
  1  2  1  0  0  0  0 
  1  3  2  0  0  0  0 
  1  4  1  0  0  0  0 
  2  5  1  0  0  0  0 
  5  6  1  0  0  0  0 
  5  7  1  0  0  0  0 
  5  8  1  0  0  0  0 
  6  9  1  0  0  0  0 
  9 10  2  0  0  0  0 
  9 11  1  0  0  0  0 
M  END
> <Name>
Glutaric acid, 3,3-dimethyl- (8CI)

> <Source>
DougDB3DMolFile

> <Tox>
1.055

> <CAS>
4839-46-7

$$$$

  CDK

 11 11  0  0  0  0  0  0  0  0999 V2000
    3.9904   -4.6078    0.0000 O   0  0  0  0  0  0  0  0  0  0  0  0
    3.3268   -3.4558    0.0000 C   0  0  0  0  0  0  0  0  0  0  0  0
    1.9952   -3.4558    0.0000 C   0  0  0  0  0  0  0  0  0  0  0  0
    3.9904   -2.3039    0.0000 C   0  0  0  0  0  0  0  0  0  0  0  0
    1.3317   -4.6078    0.0000 Cl  0  0  0  0  0  0  0  0  0  0  0  0
    1.3317   -2.3039    0.0000 C   0  0  0  0  0  0  0  0  0  0  0  0
    3.3268   -1.1519    0.0000 C   0  0  0  0  0  0  0  0  0  0  0  0
    0.0000   -2.3039    0.0000 Cl  0  0  0  0  0  0  0  0  0  0  0  0
    1.9952   -1.1519    0.0000 C   0  0  0  0  0  0  0  0  0  0  0  0
    3.9904   -0.0000    0.0000 Cl  0  0  0  0  0  0  0  0  0  0  0  0
    1.3317   -0.0000    0.0000 Cl  0  0  0  0  0  0  0  0  0  0  0  0
  1  2  1  0  0  0  0 
  2  3  2  0  0  0  0 
  2  4  1  0  0  0  0 
  3  5  1  0  0  0  0 
  3  6  1  0  0  0  0 
  7  4  2  0  0  0  0 
  6  8  1  0  0  0  0 
  6  9  2  0  0  0  0 
  9  7  1  0  0  0  0 
  7 10  1  0  0  0  0 
  9 11  1  0  0  0  0 
M  END
> <Name>
Phenol, 2,3,4,5-tetrachloro-

> <Source>
DSSTox2DMolFile

> <Tox>
5.737

> <CAS>
4901-51-3

$$$$

  CDK

 14 15  0  0  0  0  0  0  0  0999 V2000
    1.9964   -3.4570    0.0000 C   0  0  0  0  0  0  0  0  0  0  0  0
    0.6655   -3.4570    0.0000 C   0  0  0  0  0  0  0  0  0  0  0  0
    2.6619   -2.3075    0.0000 C   0  0  0  0  0  0  0  0  0  0  0  0
    0.0000   -2.3075    0.0000 N   0  0  0  0  0  0  0  0  0  0  0  0
    1.9964   -1.1581    0.0000 C   0  0  0  0  0  0  0  0  0  0  0  0
    3.9928   -2.3075    0.0000 C   0  0  0  0  0  0  0  0  0  0  0  0
    0.6655   -1.1581    0.0000 C   0  0  0  0  0  0  0  0  0  0  0  0
    4.6497   -1.1581    0.0000 C   0  0  0  0  0  0  0  0  0  0  0  0
    5.9806   -1.1581    0.0000 C   0  0  0  0  0  0  0  0  0  0  0  0
    6.6461   -0.0000    0.0000 C   0  0  0  0  0  0  0  0  0  0  0  0
    6.6461   -2.3075    0.0000 C   0  0  0  0  0  0  0  0  0  0  0  0
    7.9770   -0.0000    0.0000 C   0  0  0  0  0  0  0  0  0  0  0  0
    7.9770   -2.3075    0.0000 C   0  0  0  0  0  0  0  0  0  0  0  0
    8.6425   -1.1581    0.0000 N   0  0  0  0  0  0  0  0  0  0  0  0
  1  2  2  0  0  0  0 
  1  3  1  0  0  0  0 
  2  4  1  0  0  0  0 
  5  3  2  0  0  0  0 
  3  6  1  0  0  0  0 
  4  7  2  0  0  0  0 
  7  5  1  0  0  0  0 
  6  8  1  0  0  0  0 
  8  9  1  0  0  0  0 
  9 10  2  0  0  0  0 
  9 11  1  0  0  0  0 
 10 12  1  0  0  0  0 
 13 11  2  0  0  0  0 
 12 14  2  0  0  0  0 
 14 13  1  0  0  0  0 
M  END
> <Name>
Pyridine, 4,4'-(1,2-ethanediyl)bis-

> <Source>
DSSTox2DMolFile

> <Tox>
3.086

> <CAS>
4916-57-8

$$$$

  CDK

 11 11  0  0  0  0  0  0  0  0999 V2000
    0.5386    1.1833   -0.0005 C   0  0  0  0  0  0  0  0  0  0  0  0
   -0.1782   -0.0444    0.0004 C   0  0  0  0  0  0  0  0  0  0  0  0
    1.9484    1.1996   -0.0018 C   0  0  0  0  0  0  0  0  0  0  0  0
   -0.0185    2.4115   -0.0008 O   0  0  0  0  0  0  0  0  0  0  0  0
    0.5661   -1.2523    0.0015 C   0  0  0  0  0  0  0  0  0  0  0  0
   -1.6562   -0.0200   -0.0003 N   0  0  0  0  0  0  0  0  0  0  0  0
    2.6433    0.0087   -0.0013 C   0  0  0  0  0  0  0  0  0  0  0  0
    1.9550   -1.2046    0.0007 C   0  0  0  0  0  0  0  0  0  0  0  0
   -0.0584   -2.6031    0.0036 C   0  0  0  0  0  0  0  0  0  0  0  0
   -2.3319   -1.0238   -0.0081 O   0  0  0  0  0  0  0  0  0  0  0  0
   -2.2130    1.0779    0.0066 O   0  0  0  0  0  0  0  0  0  0  0  0
  1  2  1  0  0  0  0 
  1  3  2  0  0  0  0 
  1  4  1  0  0  0  0 
  2  5  2  0  0  0  0 
  2  6  1  0  0  0  0 
  7  3  1  0  0  0  0 
  5  8  1  0  0  0  0 
  5  9  1  0  0  0  0 
  6 10  2  0  0  0  0 
  6 11  1  0  0  0  0 
  8  7  2  0  0  0  0 
M  CHG  1   6   1
M  CHG  1  11  -1
M  END
> <Name>
Phenol, 3-methyl-2-nitro- (9CI)

> <Source>
DougDB3DMolFile

> <Tox>
3.521

> <CAS>
4920-77-8

$$$$

  CDK

 13 13  0  0  0  0  0  0  0  0999 V2000
    3.9909   -3.4584    0.0000 C   0  0  0  0  0  0  0  0  0  0  0  0
    2.6566   -3.4584    0.0000 C   0  0  0  0  0  0  0  0  0  0  0  0
    4.6551   -2.3036    0.0000 C   0  0  0  0  0  0  0  0  0  0  0  0
    1.9925   -4.6072    0.0000 O   0  0  0  0  0  0  0  0  0  0  0  0
    1.9925   -2.3036    0.0000 N   0  0  0  0  0  0  0  0  0  0  0  0
    3.9909   -1.1548    0.0000 N   0  0  0  0  0  0  0  0  0  0  0  0
    5.9834   -2.3036    0.0000 O   0  0  0  0  0  0  0  0  0  0  0  0
    0.6642   -2.3036    0.0000 C   0  0  0  0  0  0  0  0  0  0  0  0
    2.6566   -1.1548    0.0000 C   0  0  0  0  0  0  0  0  0  0  0  0
    4.6551   -0.0000    0.0000 C   0  0  0  0  0  0  0  0  0  0  0  0
    0.0000   -1.1548    0.0000 C   0  0  0  0  0  0  0  0  0  0  0  0
    1.9925   -0.0000    0.0000 S   0  0  0  0  0  0  0  0  0  0  0  0
    5.9834   -0.0000    0.0000 C   0  0  0  0  0  0  0  0  0  0  0  0
  1  2  1  0  0  0  0 
  1  3  1  0  0  0  0 
  2  4  2  0  0  0  0 
  2  5  1  0  0  0  0 
  6  3  1  0  0  0  0 
  3  7  2  0  0  0  0 
  5  8  1  0  0  0  0 
  5  9  1  0  0  0  0 
  9  6  1  0  0  0  0 
  6 10  1  0  0  0  0 
  8 11  1  0  0  0  0 
  9 12  2  0  0  0  0 
 10 13  1  0  0  0  0 
M  END
> <Name>
Barbituric acid, 1,3-diethyl-2-thio- (8CI)

> <Source>
DSSTox2DMolFile

> <Tox>
1.647

> <CAS>
5217-47-0

$$$$

  CDK

 11 12  0  0  0  0  0  0  0  0999 V2000
    0.0000    0.0000    0.0000 S   0  0  0  0  0  0  0  0  0  0  0  0
   -0.8800   -1.4000    0.4000 C   0  0  0  0  0  0  0  0  0  0  0  0
    1.4200   -0.8600    0.1400 C   0  0  0  0  0  0  0  0  0  0  0  0
   -2.5400   -1.3800    0.5000 S   0  0  0  0  0  0  0  0  0  0  0  0
   -0.1000   -2.5600    0.6600 N   0  0  0  0  0  0  0  0  0  0  0  0
    2.6800   -0.3000   -0.0800 C   0  0  0  0  0  0  0  0  0  0  0  0
    1.3200   -2.2000    0.5000 C   0  0  0  0  0  0  0  0  0  0  0  0
    3.8200   -1.1400    0.0800 C   0  0  0  0  0  0  0  0  0  0  0  0
    2.4200   -3.0600    0.6800 C   0  0  0  0  0  0  0  0  0  0  0  0
    3.6800   -2.5000    0.4600 C   0  0  0  0  0  0  0  0  0  0  0  0
    5.0800   -3.4600    0.6400 Cl  0  0  0  0  0  0  0  0  0  0  0  0
  1  2  1  0  0  0  0 
  1  3  1  0  0  0  0 
  2  4  2  0  0  0  0 
  2  5  1  0  0  0  0 
  3  6  2  0  0  0  0 
  3  7  1  0  0  0  0 
  7  5  1  0  0  0  0 
  6  8  1  0  0  0  0 
  9  7  2  0  0  0  0 
  8 10  2  0  0  0  0 
 10  9  1  0  0  0  0 
 10 11  1  0  0  0  0 
M  END
> <Name>
2(3H)-Benzothiazolethione, 5-chloro- (9CI)

> <Source>
NIH3DMolFile

> <Tox>
4.798

> <CAS>
5331-91-9

$$$$

  CDK

 15 15  0  0  0  0  0  0  0  0999 V2000
    0.0000   -3.4546    0.0000 C   0  0  0  0  0  0  0  0  0  0  0  0
    1.3324   -3.4546    0.0000 O   0  0  0  0  0  0  0  0  0  0  0  0
    1.9946   -2.2977    0.0000 C   0  0  0  0  0  0  0  0  0  0  0  0
    1.3324   -1.1489    0.0000 O   0  0  0  0  0  0  0  0  0  0  0  0
    3.3269   -2.2977    0.0000 C   0  0  0  0  0  0  0  0  0  0  0  0
    3.9891   -1.1489    0.0000 C   0  0  0  0  0  0  0  0  0  0  0  0
    3.9891   -3.4546    0.0000 C   0  0  0  0  0  0  0  0  0  0  0  0
    5.3215   -1.1489    0.0000 C   0  0  0  0  0  0  0  0  0  0  0  0
    5.3215   -3.4546    0.0000 C   0  0  0  0  0  0  0  0  0  0  0  0
    3.3269   -4.6035    0.0000 N   0  0  0  0  0  0  0  0  0  0  0  0
    5.9837   -2.2977    0.0000 C   0  0  0  0  0  0  0  0  0  0  0  0
    7.3161   -2.2977    0.0000 C   0  0  0  0  0  0  0  0  0  0  0  0
    7.9783   -3.4546    0.0000 O   0  0  0  0  0  0  0  0  0  0  0  0
    7.9783   -1.1489    0.0000 O   0  0  0  0  0  0  0  0  0  0  0  0
    7.3161   -0.0000    0.0000 C   0  0  0  0  0  0  0  0  0  0  0  0
  1  2  1  0  0  0  0 
  2  3  1  0  0  0  0 
  3  4  2  0  0  0  0 
  3  5  1  0  0  0  0 
  5  6  2  0  0  0  0 
  5  7  1  0  0  0  0 
  6  8  1  0  0  0  0 
  9  7  2  0  0  0  0 
  7 10  1  0  0  0  0 
  8 11  2  0  0  0  0 
 11  9  1  0  0  0  0 
 11 12  1  0  0  0  0 
 12 13  2  0  0  0  0 
 12 14  1  0  0  0  0 
 14 15  1  0  0  0  0 
M  END
> <Name>
1,4-Benzenedicarboxylic acid, 2-amino-, dimethyl ester

> <Source>
DSSTox2DMolFile

> <Tox>
4.369

> <CAS>
5372-81-6

$$$$

  CDK

  8  7  0  0  0  0  0  0  0  0999 V2000
    8.0744   -0.0000    0.0000 C   0  0  0  0  0  0  0  0  0  0  0  0
    6.9197   -0.6621    0.0000 C   0  0  0  0  0  0  0  0  0  0  0  0
    5.7651   -0.0000    0.0000 S   0  0  0  0  0  0  0  0  0  0  0  0
    4.6105   -0.6621    0.0000 C   0  0  0  0  0  0  0  0  0  0  0  0
    3.4639   -0.0000    0.0000 C   0  0  0  0  0  0  0  0  0  0  0  0
    2.3093   -0.6621    0.0000 S   0  0  0  0  0  0  0  0  0  0  0  0
    1.1546   -0.0000    0.0000 C   0  0  0  0  0  0  0  0  0  0  0  0
    0.0000   -0.6621    0.0000 C   0  0  0  0  0  0  0  0  0  0  0  0
  1  2  1  0  0  0  0 
  2  3  1  0  0  0  0 
  3  4  1  0  0  0  0 
  4  5  1  0  0  0  0 
  5  6  1  0  0  0  0 
  6  7  1  0  0  0  0 
  7  8  1  0  0  0  0 
M  END
> <Name>
1,2-Bis(ethylthio)ethane

> <Source>
DSSTox2DMolFile

> <Tox>
3.397

> <CAS>
5395-75-5

$$$$

  CDK

 14 13  0  0  0  0  0  0  0  0999 V2000
    3.5292    0.4037    0.0436 C   0  0  0  0  0  0  0  0  0  0  0  0
    4.6759   -0.5678    0.3631 C   0  0  0  0  0  0  0  0  0  0  0  0
    3.6246    1.5715   -0.2801 O   0  0  0  0  0  0  0  0  0  0  0  0
    2.2984   -0.1555    0.1917 O   0  0  0  0  0  0  0  0  0  0  0  0
    4.6762   -1.7414   -0.6125 C   0  0  0  0  0  0  0  0  0  0  0  0
    5.9452    0.0424    0.2734 O   0  0  0  0  0  0  0  0  0  0  0  0
    1.1479    0.6474   -0.0853 C   0  0  0  0  0  0  0  0  0  0  0  0
   -0.0646   -0.2453    0.1624 C   0  0  0  0  0  0  0  0  0  0  0  0
   -1.3454    0.5257   -0.1133 C   0  0  0  0  0  0  0  0  0  0  0  0
   -2.5710   -0.3378    0.1382 C   0  0  0  0  0  0  0  0  0  0  0  0
   -3.8530    0.4298   -0.1411 C   0  0  0  0  0  0  0  0  0  0  0  0
   -5.0792   -0.4301    0.1187 C   0  0  0  0  0  0  0  0  0  0  0  0
   -6.3625    0.3346   -0.1636 C   0  0  0  0  0  0  0  0  0  0  0  0
   -7.5837   -0.5174    0.0988 C   0  0  0  0  0  0  0  0  0  0  0  0
  1  2  1  0  0  0  0 
  1  3  2  0  0  0  0 
  1  4  1  0  0  0  0 
  2  5  1  0  0  0  0 
  2  6  1  0  0  0  0 
  4  7  1  0  0  0  0 
  7  8  1  0  0  0  0 
  8  9  1  0  0  0  0 
  9 10  1  0  0  0  0 
 10 11  1  0  0  0  0 
 11 12  1  0  0  0  0 
 12 13  1  0  0  0  0 
 13 14  1  0  0  0  0 
M  END
> <Name>
Propanoic acid, 2-hydroxy-, octyl ester

> <Source>
DougDB3DMolFile

> <Tox>
3.926

> <CAS>
5464-71-1

$$$$

  CDK

 13 13  0  0  0  0  0  0  0  0999 V2000
    4.6092   -0.6634    0.0000 C   0  0  0  0  0  0  0  0  0  0  0  0
    4.6092   -1.9902    0.0000 C   0  0  0  0  0  0  0  0  0  0  0  0
    3.4552   -0.0000    0.0000 C   0  0  0  0  0  0  0  0  0  0  0  0
    5.7563   -2.6605    0.0000 C   0  0  0  0  0  0  0  0  0  0  0  0
    3.4552   -2.6605    0.0000 C   0  0  0  0  0  0  0  0  0  0  0  0
    2.3011   -0.6634    0.0000 C   0  0  0  0  0  0  0  0  0  0  0  0
    5.7563   -3.9873    0.0000 O   0  0  0  0  0  0  0  0  0  0  0  0
    6.9103   -1.9902    0.0000 C   0  0  0  0  0  0  0  0  0  0  0  0
    2.3011   -1.9902    0.0000 C   0  0  0  0  0  0  0  0  0  0  0  0
    1.1540   -0.0000    0.0000 Cl  0  0  0  0  0  0  0  0  0  0  0  0
    1.1540   -2.6605    0.0000 N   0  0  0  0  0  0  0  0  0  0  0  0
    0.0000   -1.9902    0.0000 O   0  0  0  0  0  0  0  0  0  0  0  0
    1.1540   -3.9873    0.0000 O   0  0  0  0  0  0  0  0  0  0  0  0
  1  2  2  0  0  0  0 
  1  3  1  0  0  0  0 
  2  4  1  0  0  0  0 
  2  5  1  0  0  0  0 
  6  3  2  0  0  0  0 
  4  7  2  0  0  0  0 
  4  8  1  0  0  0  0 
  5  9  2  0  0  0  0 
  9  6  1  0  0  0  0 
  6 10  1  0  0  0  0 
  9 11  1  0  0  0  0 
 11 12  1  0  0  0  0 
 11 13  2  0  0  0  0 
M  CHG  1  11   1
M  CHG  1  12  -1
M  END
> <Name>
4'-Chloro-3'-nitroacetophenone

> <Source>
DSSTox2DMolFile

> <Tox>
4.559

> <CAS>
5465-65-6

$$$$

  CDK

 16 16  0  0  0  0  0  0  0  0999 V2000
    2.5454    0.6025   -0.1925 P   0  0  0  0  0  0  0  0  0  0  0  0
    2.5552    1.1876   -1.5103 O   0  0  0  0  0  0  0  0  0  0  0  0
    1.3953   -0.6828    0.0407 O   0  0  0  0  0  0  0  0  0  0  0  0
    2.3773    1.5523    1.1804 O   0  0  0  0  0  0  0  0  0  0  0  0
    3.8991   -0.2693    0.2934 O   0  0  0  0  0  0  0  0  0  0  0  0
    0.0681   -0.5829    0.0216 C   0  0  0  0  0  0  0  0  0  0  0  0
    2.0458    2.8943    1.0011 C   0  0  0  0  0  0  0  0  0  0  0  0
    4.3996   -1.2414   -0.5694 C   0  0  0  0  0  0  0  0  0  0  0  0
   -0.7369   -1.7476    0.1106 C   0  0  0  0  0  0  0  0  0  0  0  0
   -0.4736    0.6625   -0.0759 N   0  0  0  0  0  0  0  0  0  0  0  0
   -2.1168   -1.6048    0.0936 C   0  0  0  0  0  0  0  0  0  0  0  0
   -0.0475   -3.2706    0.2354 Cl  0  0  0  0  0  0  0  0  0  0  0  0
   -1.8268    0.7859   -0.0923 C   0  0  0  0  0  0  0  0  0  0  0  0
   -2.6698   -0.3253   -0.0100 C   0  0  0  0  0  0  0  0  0  0  0  0
   -2.4629    2.3393   -0.2153 Cl  0  0  0  0  0  0  0  0  0  0  0  0
   -4.3351   -0.1248   -0.0344 Cl  0  0  0  0  0  0  0  0  0  0  0  0
  1  2  2  0  0  0  0 
  1  3  1  0  0  0  0 
  1  4  1  0  0  0  0 
  1  5  1  0  0  0  0 
  3  6  1  0  0  0  0 
  4  7  1  0  0  0  0 
  5  8  1  0  0  0  0 
  6  9  1  0  0  0  0 
  6 10  2  0  0  0  0 
  9 11  2  0  0  0  0 
  9 12  1  0  0  0  0 
 13 10  1  0  0  0  0 
 11 14  1  0  0  0  0 
 14 13  2  0  0  0  0 
 13 15  1  0  0  0  0 
 14 16  1  0  0  0  0 
M  END
> <Name>
Phosphoric acid, dimethyl 3,5,6-trichloro-2-pyridinyl ester

> <Source>
DougDB3DMolFile

> <Tox>
8.164

> <CAS>
5598-52-7

$$$$

  CDK

  9  9  0  0  0  0  0  0  0  0999 V2000
    0.0000   -2.3037    0.0000 C   0  0  0  0  0  0  0  0  0  0  0  0
    1.3315   -2.3037    0.0000 C   0  0  0  0  0  0  0  0  0  0  0  0
    1.9950   -1.1518    0.0000 C   0  0  0  0  0  0  0  0  0  0  0  0
    1.9950   -3.4555    0.0000 N   0  0  0  0  0  0  0  0  0  0  0  0
    3.3265   -1.1518    0.0000 C   0  0  0  0  0  0  0  0  0  0  0  0
    3.3265   -3.4555    0.0000 C   0  0  0  0  0  0  0  0  0  0  0  0
    3.9899   -0.0000    0.0000 Cl  0  0  0  0  0  0  0  0  0  0  0  0
    3.9899   -2.3037    0.0000 N   0  0  0  0  0  0  0  0  0  0  0  0
    3.9899   -4.6073    0.0000 N   0  0  0  0  0  0  0  0  0  0  0  0
  1  2  1  0  0  0  0 
  2  3  2  0  0  0  0 
  2  4  1  0  0  0  0 
  3  5  1  0  0  0  0 
  6  4  2  0  0  0  0 
  5  7  1  0  0  0  0 
  5  8  2  0  0  0  0 
  8  6  1  0  0  0  0 
  6  9  1  0  0  0  0 
M  END
> <Name>
2-Pyrimidinamine, 4-chloro-6-methyl- (9CI)

> <Source>
DSSTox2DMolFile

> <Tox>
3.007

> <CAS>
5600-21-5

$$$$

  CDK

 11 11  0  0  0  0  0  0  0  0999 V2000
    3.9924   -0.0000    0.0000 C   0  0  0  0  0  0  0  0  0  0  0  0
    3.3280   -1.1492    0.0000 C   0  0  0  0  0  0  0  0  0  0  0  0
    3.9924   -2.3045    0.0000 C   0  0  0  0  0  0  0  0  0  0  0  0
    1.9932   -1.1492    0.0000 C   0  0  0  0  0  0  0  0  0  0  0  0
    5.3213   -2.3045    0.0000 O   0  0  0  0  0  0  0  0  0  0  0  0
    3.3280   -3.4537    0.0000 C   0  0  0  0  0  0  0  0  0  0  0  0
    1.3288   -2.3045    0.0000 C   0  0  0  0  0  0  0  0  0  0  0  0
    1.3288   -0.0000    0.0000 O   0  0  0  0  0  0  0  0  0  0  0  0
    5.9857   -3.4537    0.0000 C   0  0  0  0  0  0  0  0  0  0  0  0
    1.9932   -3.4537    0.0000 C   0  0  0  0  0  0  0  0  0  0  0  0
    0.0000   -0.0000    0.0000 C   0  0  0  0  0  0  0  0  0  0  0  0
  1  2  1  0  0  0  0 
  2  3  2  0  0  0  0 
  2  4  1  0  0  0  0 
  3  5  1  0  0  0  0 
  3  6  1  0  0  0  0 
  7  4  2  0  0  0  0 
  4  8  1  0  0  0  0 
  5  9  1  0  0  0  0 
  6 10  2  0  0  0  0 
 10  7  1  0  0  0  0 
  8 11  1  0  0  0  0 
M  END
> <Name>
2,6-Dimethoxytoluene

> <Source>
DSSTox2DMolFile

> <Tox>
3.877

> <CAS>
5673-07-4

$$$$

  CDK

  9  9  0  0  0  0  0  0  0  0999 V2000
    2.6574   -2.3037    0.0000 N   0  0  0  0  0  0  0  0  0  0  0  0
    1.9965   -1.1542    0.0000 C   0  0  0  0  0  0  0  0  0  0  0  0
    3.9884   -2.3037    0.0000 C   0  0  0  0  0  0  0  0  0  0  0  0
    0.6655   -1.1542    0.0000 N   0  0  0  0  0  0  0  0  0  0  0  0
    2.6574   -0.0000    0.0000 C   0  0  0  0  0  0  0  0  0  0  0  0
    4.6539   -1.1542    0.0000 C   0  0  0  0  0  0  0  0  0  0  0  0
    0.0000   -2.3037    0.0000 C   0  0  0  0  0  0  0  0  0  0  0  0
    0.0000   -0.0000    0.0000 C   0  0  0  0  0  0  0  0  0  0  0  0
    3.9884   -0.0000    0.0000 C   0  0  0  0  0  0  0  0  0  0  0  0
  1  2  2  0  0  0  0 
  1  3  1  0  0  0  0 
  2  4  1  0  0  0  0 
  2  5  1  0  0  0  0 
  6  3  2  0  0  0  0 
  4  7  1  0  0  0  0 
  4  8  1  0  0  0  0 
  5  9  2  0  0  0  0 
  9  6  1  0  0  0  0 
M  END
> <Name>
2-Pyridinamine, N,N-dimethyl- (9CI)

> <Source>
DSSTox2DMolFile

> <Tox>
2.983

> <CAS>
5683-33-0

$$$$

  CDK

  6  5  0  0  0  0  0  0  0  0999 V2000
    0.4870   -0.0000    0.0000 C   0  0  0  0  0  0  0  0  0  0  0  0
    1.1503   -1.1537    0.0000 C   0  0  0  0  0  0  0  0  0  0  0  0
    1.8169   -2.3040    0.0000 C   0  0  0  0  0  0  0  0  0  0  0  0
    0.0000   -1.8169    0.0000 C   0  0  0  0  0  0  0  0  0  0  0  0
    2.3040   -0.4870    0.0000 C   0  0  0  0  0  0  0  0  0  0  0  0
    3.4542   -1.1537    0.0000 N   0  0  0  0  0  0  0  0  0  0  0  0
  1  2  1  0  0  0  0 
  2  3  1  0  0  0  0 
  2  4  1  0  0  0  0 
  2  5  1  0  0  0  0 
  5  6  1  0  0  0  0 
M  END
> <Name>
1-Propanamine, 2,2-dimethyl- (9CI)

> <Source>
DSSTox2DMolFile

> <Tox>
2.264

> <CAS>
5813-64-9

$$$$

  CDK

 22 24  0  0  0  0  0  0  0  0999 V2000
    3.1998   -3.2640    0.0000 C   0  0  0  0  0  0  0  0  0  0  0  0
    2.0079   -2.5763    0.0000 C   0  0  0  0  0  0  0  0  0  0  0  0
    4.3917   -2.5763    0.0000 C   0  0  0  0  0  0  0  0  0  0  0  0
    3.1998   -4.6392    0.0000 C   0  0  0  0  0  0  0  0  0  0  0  0
    3.1998   -2.0721    0.0000 C   0  0  0  0  0  0  0  0  0  0  0  0
    0.8160   -3.2640    0.0000 C   0  0  0  0  0  0  0  0  0  0  0  0
    5.5927   -3.2640    0.0000 C   0  0  0  0  0  0  0  0  0  0  0  0
    4.3917   -1.1919    0.0000 C   0  0  0  0  0  0  0  0  0  0  0  0
    2.0079   -5.3269    0.0000 C   0  0  0  0  0  0  0  0  0  0  0  0
    4.3917   -5.3269    0.0000 C   0  0  0  0  0  0  0  0  0  0  0  0
    0.8160   -4.6392    0.0000 C   0  0  0  0  0  0  0  0  0  0  0  0
    5.5927   -4.6392    0.0000 C   0  0  0  0  0  0  0  0  0  0  0  0
    6.7846   -2.5763    0.0000 C   0  0  0  0  0  0  0  0  0  0  0  0
    5.5927   -0.5043    0.0000 C   0  0  0  0  0  0  0  0  0  0  0  0
    2.6772   -6.4271    0.0000 C   0  0  0  0  0  0  0  0  0  0  0  0
    0.9260   -5.9595    0.0000 C   0  0  0  0  0  0  0  0  0  0  0  0
    6.7846   -1.1919    0.0000 C   0  0  0  0  0  0  0  0  0  0  0  0
    1.1827   -7.1055    0.0000 O   0  0  0  0  0  0  0  0  0  0  0  0
    0.0000   -5.5469    0.0000 O   0  0  0  0  0  0  0  0  0  0  0  0
    7.9765   -0.5043    0.0000 C   0  0  0  0  0  0  0  0  0  0  0  0
    6.7938   -0.0000    0.0000 C   0  0  0  0  0  0  0  0  0  0  0  0
    9.1684   -1.1919    0.0000 C   0  0  0  0  0  0  0  0  0  0  0  0
  1  2  1  0  0  0  0 
  1  3  1  0  0  0  0 
  1  4  1  0  0  0  0 
  1  5  1  1  0  0  0 
  2  6  1  0  0  0  0 
  7  3  1  0  0  0  0 
  3  8  1  0  0  0  0 
  4  9  1  0  0  0  0 
  4 10  1  0  0  0  0 
  6 11  1  0  0  0  0 
  7 12  2  0  0  0  0 
  7 13  1  0  0  0  0 
 14  8  1  0  0  0  0 
  9 11  1  0  0  0  0 
  9 15  1  1  0  0  0 
  9 16  1  6  0  0  0 
 12 10  1  0  0  0  0 
 17 13  1  0  0  0  0 
 17 14  1  0  0  0  0 
 16 18  2  0  0  0  0 
 16 19  1  0  0  0  0 
 17 20  1  6  0  0  0 
 17 21  1  1  0  0  0 
 20 22  2  0  0  0  0 
M  END
> <Name>
1-Phenanthrenecarboxylic acid, 7-ethenyl-1,2,3,4,4a,4b,5,6,7,8,10,10a-dodecahydro-1,4a,7-trimethyl-, (1theta-(1alpha,4abeta,4balpha,7alpha,10aalpha))-

> <Source>
DSSTox2DMolFile

> <Tox>
5.541

> <CAS>
5835-26-7

$$$$

  CDK

 10 10  0  0  0  0  0  0  0  0999 V2000
    2.3034   -0.6622    0.0000 C   0  0  0  0  0  0  0  0  0  0  0  0
    1.1517   -0.0000    0.0000 N   0  0  0  0  0  0  0  0  0  0  0  0
    3.4551   -0.0000    0.0000 C   0  0  0  0  0  0  0  0  0  0  0  0
    2.3034   -1.9924    0.0000 C   0  0  0  0  0  0  0  0  0  0  0  0
    4.6068   -0.6622    0.0000 C   0  0  0  0  0  0  0  0  0  0  0  0
    3.4551   -2.6604    0.0000 C   0  0  0  0  0  0  0  0  0  0  0  0
    1.1517   -2.6604    0.0000 C   0  0  0  0  0  0  0  0  0  0  0  0
    4.6068   -1.9924    0.0000 C   0  0  0  0  0  0  0  0  0  0  0  0
    0.0000   -3.3226    0.0000 N   0  0  0  0  0  0  0  0  0  0  0  0
    5.7585   -2.6604    0.0000 Cl  0  0  0  0  0  0  0  0  0  0  0  0
  1  2  1  0  0  0  0 
  1  3  2  0  0  0  0 
  1  4  1  0  0  0  0 
  3  5  1  0  0  0  0 
  6  4  2  0  0  0  0 
  4  7  1  0  0  0  0 
  5  8  2  0  0  0  0 
  8  6  1  0  0  0  0 
  7  9  3  0  0  0  0 
  8 10  1  0  0  0  0 
M  END
> <Name>
Benzonitrile, 2-amino-5-chloro-

> <Source>
DSSTox2DMolFile

> <Tox>
3.727

> <CAS>
5922-60-1

$$$$

  CDK

 10 10  0  0  0  0  0  0  0  0999 V2000
    0.0000   -0.0000    0.0000 C   0  0  0  0  0  0  0  0  0  0  0  0
    0.6640   -1.1546    0.0000 C   0  0  0  0  0  0  0  0  0  0  0  0
    0.0000   -2.3031    0.0000 C   0  0  0  0  0  0  0  0  0  0  0  0
    1.9921   -1.1546    0.0000 C   0  0  0  0  0  0  0  0  0  0  0  0
    2.6561   -0.0000    0.0000 C   0  0  0  0  0  0  0  0  0  0  0  0
    2.6561   -2.3031    0.0000 C   0  0  0  0  0  0  0  0  0  0  0  0
    3.9901   -0.0000    0.0000 C   0  0  0  0  0  0  0  0  0  0  0  0
    3.9901   -2.3031    0.0000 C   0  0  0  0  0  0  0  0  0  0  0  0
    4.6542   -1.1546    0.0000 C   0  0  0  0  0  0  0  0  0  0  0  0
    5.9822   -1.1546    0.0000 C   0  0  0  0  0  0  0  0  0  0  0  0
  1  2  1  0  0  0  0 
  2  3  2  0  0  0  0 
  4  2  1  6  0  0  0 
  4  5  1  0  0  0  0 
  4  6  1  0  0  0  0 
  5  7  1  0  0  0  0 
  8  6  1  0  0  0  0 
  7  9  1  0  0  0  0 
  9  8  2  0  0  0  0 
  9 10  1  0  0  0  0 
M  END
> <Name>
Cyclohexene, 1-methyl-4-(1-methylethenyl)-, (theta)-

> <Source>
DSSTox2DMolFile

> <Tox>
5.282

> <CAS>
5989-27-5

$$$$

  CDK

 13 12  0  0  0  0  0  0  0  0999 V2000
    0.0000   -2.6588    0.0000 C   0  0  0  0  0  0  0  0  0  0  0  0
    1.1510   -1.9912    0.0000 C   0  0  0  0  0  0  0  0  0  0  0  0
    2.3020   -2.6588    0.0000 C   0  0  0  0  0  0  0  0  0  0  0  0
    3.4530   -1.9912    0.0000 C   0  0  0  0  0  0  0  0  0  0  0  0
    4.6040   -2.6588    0.0000 C   0  0  0  0  0  0  0  0  0  0  0  0
    5.7550   -1.9912    0.0000 C   0  0  0  0  0  0  0  0  0  0  0  0
    6.9059   -2.6588    0.0000 C   0  0  0  0  0  0  0  0  0  0  0  0
    8.0569   -1.9912    0.0000 C   0  0  0  0  0  0  0  0  0  0  0  0
    9.2079   -2.6588    0.0000 C   0  0  0  0  0  0  0  0  0  0  0  0
   10.3589   -1.9912    0.0000 C   0  0  0  0  0  0  0  0  0  0  0  0
   10.3589   -0.6676    0.0000 C   0  0  0  0  0  0  0  0  0  0  0  0
    9.2079   -0.0000    0.0000 O   0  0  0  0  0  0  0  0  0  0  0  0
   11.5099   -0.0000    0.0000 C   0  0  0  0  0  0  0  0  0  0  0  0
  1  2  1  0  0  0  0 
  2  3  1  0  0  0  0 
  3  4  1  0  0  0  0 
  4  5  1  0  0  0  0 
  5  6  1  0  0  0  0 
  6  7  1  0  0  0  0 
  7  8  1  0  0  0  0 
  8  9  1  0  0  0  0 
  9 10  1  0  0  0  0 
 10 11  1  0  0  0  0 
 11 12  2  0  0  0  0 
 11 13  1  0  0  0  0 
M  END
> <Name>
2-Dodecanone

> <Source>
DSSTox2DMolFile

> <Tox>
5.194

> <CAS>
6175-49-1

$$$$

  CDK

 13 13  0  0  0  0  0  0  0  0999 V2000
    4.6546   -2.3013    0.0000 C   0  0  0  0  0  0  0  0  0  0  0  0
    3.9971   -1.1507    0.0000 C   0  0  0  0  0  0  0  0  0  0  0  0
    5.9870   -2.3013    0.0000 C   0  0  0  0  0  0  0  0  0  0  0  0
    2.6647   -1.1507    0.0000 C   0  0  0  0  0  0  0  0  0  0  0  0
    4.6546   -0.0000    0.0000 C   0  0  0  0  0  0  0  0  0  0  0  0
    6.6531   -1.1507    0.0000 C   0  0  0  0  0  0  0  0  0  0  0  0
    1.9985   -2.3013    0.0000 C   0  0  0  0  0  0  0  0  0  0  0  0
    5.9870   -0.0000    0.0000 C   0  0  0  0  0  0  0  0  0  0  0  0
    7.9855   -1.1507    0.0000 N   0  0  0  0  0  0  0  0  0  0  0  0
    0.6662   -2.3013    0.0000 C   0  0  0  0  0  0  0  0  0  0  0  0
    8.6517   -2.3013    0.0000 C   0  0  0  0  0  0  0  0  0  0  0  0
    8.6517   -0.0000    0.0000 C   0  0  0  0  0  0  0  0  0  0  0  0
    0.0000   -1.1507    0.0000 O   0  0  0  0  0  0  0  0  0  0  0  0
  1  2  2  0  0  0  0 
  1  3  1  0  0  0  0 
  2  4  1  0  0  0  0 
  2  5  1  0  0  0  0 
  6  3  2  0  0  0  0 
  4  7  2  0  0  0  0 
  5  8  2  0  0  0  0 
  8  6  1  0  0  0  0 
  6  9  1  0  0  0  0 
  7 10  1  0  0  0  0 
  9 11  1  0  0  0  0 
  9 12  1  0  0  0  0 
 10 13  2  0  0  0  0 
M  END
> <Name>
2-Propenal, 3-(4-(dimethylamino)phenyl)-

> <Source>
DSSTox2DMolFile

> <Tox>
4.473

> <CAS>
6203-18-5

$$$$

  CDK

 15 15  0  0  0  0  0  0  0  0999 V2000
    5.7586   -0.0000    0.0000 Cl  0  0  0  0  0  0  0  0  0  0  0  0
    4.6111   -0.6637    0.0000 C   0  0  0  0  0  0  0  0  0  0  0  0
    4.6111   -1.9910    0.0000 C   0  0  0  0  0  0  0  0  0  0  0  0
    3.4566   -0.0000    0.0000 C   0  0  0  0  0  0  0  0  0  0  0  0
    5.7586   -2.6616    0.0000 N   0  0  0  0  0  0  0  0  0  0  0  0
    3.4566   -2.6616    0.0000 C   0  0  0  0  0  0  0  0  0  0  0  0
    2.3021   -0.6637    0.0000 C   0  0  0  0  0  0  0  0  0  0  0  0
    6.9131   -1.9910    0.0000 O   0  0  0  0  0  0  0  0  0  0  0  0
    5.7586   -3.9889    0.0000 O   0  0  0  0  0  0  0  0  0  0  0  0
    3.4566   -3.9889    0.0000 Cl  0  0  0  0  0  0  0  0  0  0  0  0
    2.3021   -1.9910    0.0000 C   0  0  0  0  0  0  0  0  0  0  0  0
    1.1545   -0.0000    0.0000 Cl  0  0  0  0  0  0  0  0  0  0  0  0
    1.1545   -2.6616    0.0000 N   0  0  0  0  0  0  0  0  0  0  0  0
    0.0000   -1.9910    0.0000 O   0  0  0  0  0  0  0  0  0  0  0  0
    1.1545   -3.9889    0.0000 O   0  0  0  0  0  0  0  0  0  0  0  0
  1  2  1  0  0  0  0 
  2  3  2  0  0  0  0 
  2  4  1  0  0  0  0 
  3  5  1  0  0  0  0 
  3  6  1  0  0  0  0 
  7  4  2  0  0  0  0 
  5  8  1  0  0  0  0 
  5  9  2  0  0  0  0 
  6 10  1  0  0  0  0 
  6 11  2  0  0  0  0 
 11  7  1  0  0  0  0 
  7 12  1  0  0  0  0 
 11 13  1  0  0  0  0 
 13 14  1  0  0  0  0 
 13 15  2  0  0  0  0 
M  CHG  1   5   1
M  CHG  1   8  -1
M  CHG  1  13   1
M  CHG  1  14  -1
M  END
> <Name>
Benzene, 1,3,5-trichloro-2,4-dinitro-

> <Source>
DSSTox2DMolFile

> <Tox>
6.087

> <CAS>
6284-83-9

$$$$

  CDK

 12 12  0  0  0  0  0  0  0  0999 V2000
    3.9918   -5.7573    0.0000 Cl  0  0  0  0  0  0  0  0  0  0  0  0
    3.3275   -4.6082    0.0000 C   0  0  0  0  0  0  0  0  0  0  0  0
    1.9929   -4.6082    0.0000 C   0  0  0  0  0  0  0  0  0  0  0  0
    3.9918   -3.4532    0.0000 C   0  0  0  0  0  0  0  0  0  0  0  0
    1.3286   -3.4532    0.0000 C   0  0  0  0  0  0  0  0  0  0  0  0
    3.3275   -2.3041    0.0000 C   0  0  0  0  0  0  0  0  0  0  0  0
    5.3204   -3.4532    0.0000 C   0  0  0  0  0  0  0  0  0  0  0  0
    1.9929   -2.3041    0.0000 C   0  0  0  0  0  0  0  0  0  0  0  0
    5.9847   -2.3041    0.0000 O   0  0  0  0  0  0  0  0  0  0  0  0
    1.3286   -1.1491    0.0000 N   0  0  0  0  0  0  0  0  0  0  0  0
    1.9929   -0.0000    0.0000 O   0  0  0  0  0  0  0  0  0  0  0  0
    0.0000   -1.1491    0.0000 O   0  0  0  0  0  0  0  0  0  0  0  0
  1  2  1  0  0  0  0 
  2  3  2  0  0  0  0 
  2  4  1  0  0  0  0 
  3  5  1  0  0  0  0 
  4  6  2  0  0  0  0 
  4  7  1  0  0  0  0 
  5  8  2  0  0  0  0 
  8  6  1  0  0  0  0 
  7  9  2  0  0  0  0 
  8 10  1  0  0  0  0 
 10 11  2  0  0  0  0 
 10 12  1  0  0  0  0 
M  CHG  1  10   1
M  CHG  1  12  -1
M  END
> <Name>
Benzaldehyde, 2-chloro-5-nitro-

> <Source>
DSSTox2DMolFile

> <Tox>
4.672

> <CAS>
6361-21-3

$$$$

  CDK

 20 21  0  0  0  0  0  0  0  0999 V2000
   -0.2132    1.4868    0.2107 C   0  0  0  0  0  0  0  0  0  0  0  0
   -1.6796    1.1841    0.1039 C   0  0  0  0  0  0  0  0  0  0  0  0
    0.1966    2.5310    0.7002 O   0  0  0  0  0  0  0  0  0  0  0  0
    0.6813    0.5461   -0.3506 N   0  0  0  0  0  0  0  0  0  0  0  0
   -2.2085   -0.1283    0.0473 C   0  0  0  0  0  0  0  0  0  0  0  0
   -2.5576    2.2636    0.0849 C   0  0  0  0  0  0  0  0  0  0  0  0
    2.1147    0.5911   -0.2467 C   0  0  0  0  0  0  0  0  0  0  0  0
   -1.3129   -1.1413    0.0589 O   0  0  0  0  0  0  0  0  0  0  0  0
   -3.6095   -0.3277   -0.0207 C   0  0  0  0  0  0  0  0  0  0  0  0
   -3.9379    2.0675    0.0086 C   0  0  0  0  0  0  0  0  0  0  0  0
    2.7974   -0.6163   -0.0398 C   0  0  0  0  0  0  0  0  0  0  0  0
    2.8332    1.7802   -0.4202 C   0  0  0  0  0  0  0  0  0  0  0  0
   -4.4618    0.7915   -0.0404 C   0  0  0  0  0  0  0  0  0  0  0  0
   -4.1942   -1.6873   -0.0718 N   0  0  0  0  0  0  0  0  0  0  0  0
    4.1869   -0.6105   -0.0046 C   0  0  0  0  0  0  0  0  0  0  0  0
    4.2232    1.7589   -0.3733 C   0  0  0  0  0  0  0  0  0  0  0  0
   -5.3892   -1.8568   -0.1275 O   0  0  0  0  0  0  0  0  0  0  0  0
   -3.4206   -2.6427   -0.0569 O   0  0  0  0  0  0  0  0  0  0  0  0
    4.9097    0.5685   -0.1667 C   0  0  0  0  0  0  0  0  0  0  0  0
    5.0106   -2.0616    0.2427 Cl  0  0  0  0  0  0  0  0  0  0  0  0
  1  2  1  0  0  0  0 
  1  3  2  0  0  0  0 
  1  4  1  0  0  0  0 
  2  5  1  0  0  0  0 
  2  6  2  0  0  0  0 
  4  7  1  0  0  0  0 
  5  8  1  0  0  0  0 
  5  9  2  0  0  0  0 
 10  6  1  0  0  0  0 
  7 11  1  0  0  0  0 
  7 12  2  0  0  0  0 
  9 13  1  0  0  0  0 
  9 14  1  0  0  0  0 
 13 10  2  0  0  0  0 
 11 15  2  0  0  0  0 
 16 12  1  0  0  0  0 
 14 17  2  0  0  0  0 
 14 18  1  0  0  0  0 
 15 19  1  0  0  0  0 
 15 20  1  0  0  0  0 
 19 16  2  0  0  0  0 
M  CHG  1  14   1
M  CHG  1  18  -1
M  END
> <Name>
Benzamide, N-(3-chlorophenyl)-2-hydroxy-3-nitro-

> <Source>
DougDB3DMolFile

> <Tox>
6.077

> <CAS>
6491-02-7

$$$$

  CDK

 10 10  0  0  0  0  0  0  0  0999 V2000
    0.0000   -2.3028    0.0000 N   0  0  0  0  0  0  0  0  0  0  0  0
    1.3296   -2.3028    0.0000 C   0  0  0  0  0  0  0  0  0  0  0  0
    2.6591   -2.3028    0.0000 C   0  0  0  0  0  0  0  0  0  0  0  0
    3.3239   -1.1487    0.0000 C   0  0  0  0  0  0  0  0  0  0  0  0
    3.3239   -3.4568    0.0000 C   0  0  0  0  0  0  0  0  0  0  0  0
    2.6591   -0.0000    0.0000 Cl  0  0  0  0  0  0  0  0  0  0  0  0
    4.6534   -1.1487    0.0000 C   0  0  0  0  0  0  0  0  0  0  0  0
    4.6534   -3.4568    0.0000 C   0  0  0  0  0  0  0  0  0  0  0  0
    2.6591   -4.6056    0.0000 C   0  0  0  0  0  0  0  0  0  0  0  0
    5.3182   -2.3028    0.0000 C   0  0  0  0  0  0  0  0  0  0  0  0
  1  2  3  0  0  0  0 
  2  3  1  0  0  0  0 
  3  4  2  0  0  0  0 
  3  5  1  0  0  0  0 
  4  6  1  0  0  0  0 
  4  7  1  0  0  0  0 
  8  5  2  0  0  0  0 
  5  9  1  0  0  0  0 
  7 10  2  0  0  0  0 
 10  8  1  0  0  0  0 
M  END
> <Name>
Benzonitrile, 2-chloro-6-methyl-

> <Source>
DSSTox2DMolFile

> <Tox>
4.002

> <CAS>
6575-09-3

$$$$

  CDK

  8  8  0  0  0  0  0  0  0  0999 V2000
    1.9954   -3.4560    0.0000 N   0  0  0  0  0  0  0  0  0  0  0  0
    1.3289   -2.3027    0.0000 C   0  0  0  0  0  0  0  0  0  0  0  0
    3.3243   -3.4560    0.0000 C   0  0  0  0  0  0  0  0  0  0  0  0
    0.0000   -2.3027    0.0000 Br  0  0  0  0  0  0  0  0  0  0  0  0
    1.9954   -1.1533    0.0000 C   0  0  0  0  0  0  0  0  0  0  0  0
    3.9907   -2.3027    0.0000 C   0  0  0  0  0  0  0  0  0  0  0  0
    1.3289   -0.0000    0.0000 O   0  0  0  0  0  0  0  0  0  0  0  0
    3.3243   -1.1533    0.0000 C   0  0  0  0  0  0  0  0  0  0  0  0
  1  2  2  0  0  0  0 
  1  3  1  0  0  0  0 
  2  4  1  0  0  0  0 
  2  5  1  0  0  0  0 
  6  3  2  0  0  0  0 
  5  7  1  0  0  0  0 
  5  8  2  0  0  0  0 
  8  6  1  0  0  0  0 
M  END
> <Name>
3-Pyridinol, 2-bromo-

> <Source>
DSSTox2DMolFile

> <Tox>
2.569

> <CAS>
6602-32-0

$$$$

  CDK

  8  8  0  0  0  0  0  0  0  0999 V2000
    1.9954   -3.4560    0.0000 N   0  0  0  0  0  0  0  0  0  0  0  0
    1.3289   -2.3027    0.0000 C   0  0  0  0  0  0  0  0  0  0  0  0
    3.3243   -3.4560    0.0000 C   0  0  0  0  0  0  0  0  0  0  0  0
    0.0000   -2.3027    0.0000 Cl  0  0  0  0  0  0  0  0  0  0  0  0
    1.9954   -1.1533    0.0000 C   0  0  0  0  0  0  0  0  0  0  0  0
    3.9907   -2.3027    0.0000 C   0  0  0  0  0  0  0  0  0  0  0  0
    1.3289   -0.0000    0.0000 O   0  0  0  0  0  0  0  0  0  0  0  0
    3.3243   -1.1533    0.0000 C   0  0  0  0  0  0  0  0  0  0  0  0
  1  2  2  0  0  0  0 
  1  3  1  0  0  0  0 
  2  4  1  0  0  0  0 
  2  5  1  0  0  0  0 
  6  3  2  0  0  0  0 
  5  7  1  0  0  0  0 
  5  8  2  0  0  0  0 
  8  6  1  0  0  0  0 
M  END
> <Name>
3-Pyridinol, 2-chloro-

> <Source>
DSSTox2DMolFile

> <Tox>
2.319

> <CAS>
6636-78-8

$$$$

  CDK

 10  9  0  0  0  0  0  0  0  0999 V2000
    5.7589   -0.0000    0.0000 C   0  0  0  0  0  0  0  0  0  0  0  0
    4.6113   -0.6637    0.0000 C   0  0  0  0  0  0  0  0  0  0  0  0
    3.4567   -1.3274    0.0000 C   0  0  0  0  0  0  0  0  0  0  0  0
    3.4567   -2.6617    0.0000 N   0  0  0  0  0  0  0  0  0  0  0  0
    4.6113   -3.3254    0.0000 C   0  0  0  0  0  0  0  0  0  0  0  0
    2.3022   -3.3254    0.0000 C   0  0  0  0  0  0  0  0  0  0  0  0
    5.7589   -2.6617    0.0000 C   0  0  0  0  0  0  0  0  0  0  0  0
    1.1545   -2.6617    0.0000 C   0  0  0  0  0  0  0  0  0  0  0  0
    6.9134   -1.9980    0.0000 C   0  0  0  0  0  0  0  0  0  0  0  0
    0.0000   -1.9980    0.0000 C   0  0  0  0  0  0  0  0  0  0  0  0
  1  2  3  0  0  0  0 
  2  3  1  0  0  0  0 
  3  4  1  0  0  0  0 
  4  5  1  0  0  0  0 
  4  6  1  0  0  0  0 
  5  7  1  0  0  0  0 
  6  8  1  0  0  0  0 
  7  9  3  0  0  0  0 
  8 10  3  0  0  0  0 
M  END
> <Name>
2-Propyn-1-amine, N,N-di-2-propynyl- (9CI)

> <Source>
DSSTox2DMolFile

> <Tox>
2.647

> <CAS>
6921-29-5

$$$$

  CDK

 18 17  0  0  0  0  0  0  0  0999 V2000
    6.9101   -0.0000    0.0000 C   0  0  0  0  0  0  0  0  0  0  0  0
    6.9101   -1.3261    0.0000 C   0  0  0  0  0  0  0  0  0  0  0  0
    8.0601   -1.9891    0.0000 O   0  0  0  0  0  0  0  0  0  0  0  0
    8.0601   -3.3152    0.0000 C   0  0  0  0  0  0  0  0  0  0  0  0
    9.2101   -3.9886    0.0000 O   0  0  0  0  0  0  0  0  0  0  0  0
    6.9101   -3.9886    0.0000 C   0  0  0  0  0  0  0  0  0  0  0  0
    9.2101   -5.3147    0.0000 C   0  0  0  0  0  0  0  0  0  0  0  0
    5.7602   -3.3152    0.0000 N   0  0  0  0  0  0  0  0  0  0  0  0
   10.3600   -5.9777    0.0000 C   0  0  0  0  0  0  0  0  0  0  0  0
    5.7602   -1.9891    0.0000 C   0  0  0  0  0  0  0  0  0  0  0  0
    4.5998   -3.9886    0.0000 C   0  0  0  0  0  0  0  0  0  0  0  0
    3.4499   -3.3152    0.0000 C   0  0  0  0  0  0  0  0  0  0  0  0
    2.2999   -3.9886    0.0000 O   0  0  0  0  0  0  0  0  0  0  0  0
    3.4499   -1.9891    0.0000 O   0  0  0  0  0  0  0  0  0  0  0  0
    1.1500   -3.3152    0.0000 C   0  0  0  0  0  0  0  0  0  0  0  0
    2.2999   -1.3261    0.0000 C   0  0  0  0  0  0  0  0  0  0  0  0
    0.0000   -3.9886    0.0000 C   0  0  0  0  0  0  0  0  0  0  0  0
    1.1500   -1.9891    0.0000 C   0  0  0  0  0  0  0  0  0  0  0  0
  1  2  1  0  0  0  0 
  2  3  1  0  0  0  0 
  3  4  1  0  0  0  0 
  4  5  1  0  0  0  0 
  4  6  1  0  0  0  0 
  5  7  1  0  0  0  0 
  6  8  1  0  0  0  0 
  7  9  1  0  0  0  0 
  8 10  1  0  0  0  0 
  8 11  1  0  0  0  0 
 11 12  1  0  0  0  0 
 12 13  1  0  0  0  0 
 12 14  1  0  0  0  0 
 13 15  1  0  0  0  0 
 14 16  1  0  0  0  0 
 15 17  1  0  0  0  0 
 16 18  1  0  0  0  0 
M  END
> <Name>
N,N-Bis(2,2-diethoxyethyl)methylamine

> <Source>
DSSTox2DMolFile

> <Tox>
2.617

> <CAS>
6948-86-3

$$$$

  CDK

 14 14  0  0  0  0  0  0  0  0999 V2000
   11.5135   -0.6678    0.0000 N   0  0  0  0  0  0  0  0  0  0  0  0
   10.3621   -0.0000    0.0000 C   0  0  0  0  0  0  0  0  0  0  0  0
    9.2108   -0.6678    0.0000 C   0  0  0  0  0  0  0  0  0  0  0  0
    8.0594   -0.0000    0.0000 C   0  0  0  0  0  0  0  0  0  0  0  0
    6.9081   -0.6678    0.0000 N   0  0  0  0  0  0  0  0  0  0  0  0
    6.9081   -1.9918    0.0000 C   0  0  0  0  0  0  0  0  0  0  0  0
    5.7567   -0.0000    0.0000 C   0  0  0  0  0  0  0  0  0  0  0  0
    5.7567   -2.6596    0.0000 C   0  0  0  0  0  0  0  0  0  0  0  0
    4.6054   -0.6678    0.0000 C   0  0  0  0  0  0  0  0  0  0  0  0
    4.6054   -1.9918    0.0000 N   0  0  0  0  0  0  0  0  0  0  0  0
    3.4540   -2.6596    0.0000 C   0  0  0  0  0  0  0  0  0  0  0  0
    2.3027   -1.9918    0.0000 C   0  0  0  0  0  0  0  0  0  0  0  0
    1.1513   -2.6596    0.0000 C   0  0  0  0  0  0  0  0  0  0  0  0
    0.0000   -1.9918    0.0000 N   0  0  0  0  0  0  0  0  0  0  0  0
  1  2  1  0  0  0  0 
  2  3  1  0  0  0  0 
  3  4  1  0  0  0  0 
  4  5  1  0  0  0  0 
  5  6  1  0  0  0  0 
  5  7  1  0  0  0  0 
  6  8  1  0  0  0  0 
  9  7  1  0  0  0  0 
  8 10  1  0  0  0  0 
 10  9  1  0  0  0  0 
 10 11  1  0  0  0  0 
 11 12  1  0  0  0  0 
 12 13  1  0  0  0  0 
 13 14  1  0  0  0  0 
M  END
> <Name>
N,N'-Bis(3-aminopropyl)piperazine

> <Source>
DSSTox2DMolFile

> <Tox>
1.810

> <CAS>
7209-38-3

$$$$

  CDK

 16 15  0  0  0  0  0  0  0  0999 V2000
   11.5129   -0.0127    0.0000 C   0  0  0  0  0  0  0  0  0  0  0  0
   10.3603   -0.6713    0.0000 C   0  0  0  0  0  0  0  0  0  0  0  0
   12.6654   -0.6713    0.0000 C   0  0  0  0  0  0  0  0  0  0  0  0
   11.5129   -1.3425    0.0000 O   0  0  0  0  0  0  0  0  0  0  0  0
    9.2078   -0.0127    0.0000 C   0  0  0  0  0  0  0  0  0  0  0  0
    9.2078   -1.3425    0.0000 C   0  0  0  0  0  0  0  0  0  0  0  0
    8.0552   -0.6713    0.0000 C   0  0  0  0  0  0  0  0  0  0  0  0
    6.9027   -0.0127    0.0000 C   0  0  0  0  0  0  0  0  0  0  0  0
    5.7628   -0.6713    0.0000 C   0  0  0  0  0  0  0  0  0  0  0  0
    4.6102   -0.0127    0.0000 C   0  0  0  0  0  0  0  0  0  0  0  0
    5.7628   -2.0138    0.0000 C   0  0  0  0  0  0  0  0  0  0  0  0
    3.4577   -0.6713    0.0000 C   0  0  0  0  0  0  0  0  0  0  0  0
    2.3051   -0.0127    0.0000 C   0  0  0  0  0  0  0  0  0  0  0  0
    1.1526   -0.6713    0.0000 C   0  0  0  0  0  0  0  0  0  0  0  0
    1.1526   -2.0138    0.0000 C   0  0  0  0  0  0  0  0  0  0  0  0
    0.0000   -0.0000    0.0000 C   0  0  0  0  0  0  0  0  0  0  0  0
  1  2  1  0  0  0  0 
  1  3  2  0  0  0  0 
  2  4  1  0  0  0  0 
  2  5  1  0  0  0  0 
  2  6  1  0  0  0  0 
  7  5  1  0  0  0  0 
  8  7  1  0  0  0  0 
  9  8  2  0  0  0  0 
  9 10  1  0  0  0  0 
  9 11  1  0  0  0  0 
 12 10  1  0  0  0  0 
 13 12  1  0  0  0  0 
 14 13  2  0  0  0  0 
 14 15  1  0  0  0  0 
 14 16  1  0  0  0  0 
M  END
> <Name>
3,7,11-Trimethyldodeca-1,6,10-trien-3-ol,mixed isomers

> <Source>
DSSTox2DMolFile

> <Tox>
5.192

> <CAS>
7212-44-4

$$$$

  CDK

 10 11  0  0  0  0  0  0  0  0999 V2000
    1.6336    1.3043    0.0000 C   0  0  0  0  0  0  0  0  0  0  0  0
    2.4433    0.9039    0.0000 C   0  0  0  0  0  0  0  0  0  0  0  0
    0.8296    1.0655    0.0000 C   0  0  0  0  0  0  0  0  0  0  0  0
    2.0099    2.4286    0.0000 C   0  0  0  0  0  0  0  0  0  0  0  0
    1.1701    2.0313    0.0000 C   0  0  0  0  0  0  0  0  0  0  0  0
    2.9626    0.0000    0.0000 C   0  0  0  0  0  0  0  0  0  0  0  0
    3.4928    0.9065    0.0000 C   0  0  0  0  0  0  0  0  0  0  0  0
    0.0000    1.3196    0.0000 C   0  0  0  0  0  0  0  0  0  0  0  0
    0.8261    0.2268    0.0000 C   0  0  0  0  0  0  0  0  0  0  0  0
    0.2789    1.8959    0.0000 C   0  0  0  0  0  0  0  0  0  0  0  0
  2  1  1  0  0  0  0 
  1  3  1  0  0  0  0 
  1  4  1  1  0  0  0 
  2  5  1  0  0  0  0 
  2  6  1  0  0  0  0 
  2  7  1  0  0  0  0 
  3  8  2  0  0  0  0 
  3  9  1  0  0  0  0 
  5  4  1  1  0  0  0 
 10  5  1  0  0  0  0 
  8 10  1  0  0  0  0 
M  END
> <Name>
(1R,5R)-4,6,6-trimethylbicyclo[3.1.1]hept-3-ene

> <Source>
NIST2DMolFile

> <Tox>
5.687

> <CAS>
7785-70-8

$$$$

  CDK

 11 11  0  0  0  0  0  0  0  0999 V2000
    1.9934   -1.1561    0.0000 C   0  0  0  0  0  0  0  0  0  0  0  0
    0.6618   -1.1561    0.0000 C   0  0  0  0  0  0  0  0  0  0  0  0
    2.6551   -0.0000    0.0000 C   0  0  0  0  0  0  0  0  0  0  0  0
    2.6551   -2.3043    0.0000 C   0  0  0  0  0  0  0  0  0  0  0  0
    0.0000   -0.0000    0.0000 O   0  0  0  0  0  0  0  0  0  0  0  0
    3.9867   -0.0000    0.0000 C   0  0  0  0  0  0  0  0  0  0  0  0
    3.9867   -2.3043    0.0000 C   0  0  0  0  0  0  0  0  0  0  0  0
    4.6485   -1.1561    0.0000 C   0  0  0  0  0  0  0  0  0  0  0  0
    5.9801   -1.1561    0.0000 O   0  0  0  0  0  0  0  0  0  0  0  0
    6.6419   -2.3043    0.0000 C   0  0  0  0  0  0  0  0  0  0  0  0
    7.9734   -2.3043    0.0000 C   0  0  0  0  0  0  0  0  0  0  0  0
  1  2  1  0  0  0  0 
  1  3  2  0  0  0  0 
  1  4  1  0  0  0  0 
  2  5  2  0  0  0  0 
  3  6  1  0  0  0  0 
  7  4  2  0  0  0  0 
  6  8  2  0  0  0  0 
  8  7  1  0  0  0  0 
  8  9  1  0  0  0  0 
  9 10  1  0  0  0  0 
 10 11  1  0  0  0  0 
M  END
> <Name>
Benzaldehyde, 4-ethoxy-

> <Source>
DSSTox2DMolFile

> <Tox>
3.736

> <CAS>
10031-82-0

$$$$

  CDK

 14 14  0  0  0  0  0  0  0  0999 V2000
   -1.2159    1.4016   -0.0995 C   0  0  0  0  0  0  0  0  0  0  0  0
   -1.0429    0.0051    0.0180 C   0  0  0  0  0  0  0  0  0  0  0  0
   -0.0775    2.2315   -0.1605 C   0  0  0  0  0  0  0  0  0  0  0  0
   -2.4839    1.9947   -0.2717 N   0  0  0  0  0  0  0  0  0  0  0  0
    0.2484   -0.5551    0.0878 C   0  0  0  0  0  0  0  0  0  0  0  0
   -2.2516   -0.8905    0.0555 N   0  0  0  0  0  0  0  0  0  0  0  0
    1.1846    1.6839   -0.1204 C   0  0  0  0  0  0  0  0  0  0  0  0
    1.3583    0.2951   -0.0057 C   0  0  0  0  0  0  0  0  0  0  0  0
    0.4261   -2.0232    0.2697 C   0  0  0  0  0  0  0  0  0  0  0  0
   -3.0260   -0.7808    0.9869 O   0  0  0  0  0  0  0  0  0  0  0  0
   -2.4361   -1.6835   -0.8402 O   0  0  0  0  0  0  0  0  0  0  0  0
    2.7741   -0.2078    0.0047 N   0  0  0  0  0  0  0  0  0  0  0  0
    3.5685    0.3127    0.7609 O   0  0  0  0  0  0  0  0  0  0  0  0
    3.1009   -1.0978   -0.7519 O   0  0  0  0  0  0  0  0  0  0  0  0
  1  2  1  0  0  0  0 
  1  3  2  0  0  0  0 
  1  4  1  0  0  0  0 
  2  5  2  0  0  0  0 
  2  6  1  0  0  0  0 
  7  3  1  0  0  0  0 
  5  8  1  0  0  0  0 
  5  9  1  0  0  0  0 
  6 10  2  0  0  0  0 
  6 11  1  0  0  0  0 
  8  7  2  0  0  0  0 
  8 12  1  0  0  0  0 
 12 13  2  0  0  0  0 
 12 14  1  0  0  0  0 
M  CHG  1   6   1
M  CHG  1  11  -1
M  CHG  1  12   1
M  CHG  1  14  -1
M  END
> <Name>
m-Toluidine, 2,4-dinitro-

> <Source>
DougDB3DMolFile

> <Tox>
4.249

> <CAS>
10202-92-3

$$$$

  CDK

  8  7  0  0  0  0  0  0  0  0999 V2000
    3.4549   -2.6533    0.0000 C   0  0  0  0  0  0  0  0  0  0  0  0
    4.6065   -3.3259    0.0000 N   0  0  0  0  0  0  0  0  0  0  0  0
    2.3032   -1.9992    0.0000 C   0  0  0  0  0  0  0  0  0  0  0  0
    2.9758   -0.8476    0.0000 Br  0  0  0  0  0  0  0  0  0  0  0  0
    1.6491   -3.1508    0.0000 Br  0  0  0  0  0  0  0  0  0  0  0  0
    1.1516   -1.3267    0.0000 C   0  0  0  0  0  0  0  0  0  0  0  0
    1.1516   -0.0000    0.0000 O   0  0  0  0  0  0  0  0  0  0  0  0
    0.0000   -1.9992    0.0000 N   0  0  0  0  0  0  0  0  0  0  0  0
  1  2  3  0  0  0  0 
  1  3  1  0  0  0  0 
  3  4  1  0  0  0  0 
  3  5  1  0  0  0  0 
  3  6  1  0  0  0  0 
  6  7  2  0  0  0  0 
  6  8  1  0  0  0  0 
M  END
> <Name>
Acetamide, 2,2-dibromo-2-cyano-

> <Source>
DSSTox2DMolFile

> <Tox>
5.128

> <CAS>
10222-01-2

$$$$

  CDK

 15 14  0  0  0  0  0  0  0  0999 V2000
    0.0000   -4.4794    0.0000 C   0  0  0  0  0  0  0  0  0  0  0  0
    1.3294   -4.4794    0.0000 C   0  0  0  0  0  0  0  0  0  0  0  0
    1.9984   -3.3278    0.0000 O   0  0  0  0  0  0  0  0  0  0  0  0
    3.3278   -3.3278    0.0000 P   0  0  0  0  0  0  0  0  0  0  0  0
    4.6572   -3.3278    0.0000 S   0  0  0  0  0  0  0  0  0  0  0  0
    3.3278   -1.9984    0.0000 O   0  0  0  0  0  0  0  0  0  0  0  0
    3.3278   -4.6572    0.0000 S   0  0  0  0  0  0  0  0  0  0  0  0
    4.4794   -1.3294    0.0000 C   0  0  0  0  0  0  0  0  0  0  0  0
    4.4794   -5.3177    0.0000 C   0  0  0  0  0  0  0  0  0  0  0  0
    4.4794   -0.0000    0.0000 C   0  0  0  0  0  0  0  0  0  0  0  0
    4.4794   -6.6471    0.0000 S   0  0  0  0  0  0  0  0  0  0  0  0
    5.6310   -7.3160    0.0000 C   0  0  0  0  0  0  0  0  0  0  0  0
    6.2915   -6.1644    0.0000 C   0  0  0  0  0  0  0  0  0  0  0  0
    6.7826   -7.9850    0.0000 C   0  0  0  0  0  0  0  0  0  0  0  0
    4.9620   -8.4676    0.0000 C   0  0  0  0  0  0  0  0  0  0  0  0
  1  2  1  0  0  0  0 
  2  3  1  0  0  0  0 
  3  4  1  0  0  0  0 
  4  5  2  0  0  0  0 
  4  6  1  0  0  0  0 
  4  7  1  0  0  0  0 
  6  8  1  0  0  0  0 
  7  9  1  0  0  0  0 
  8 10  1  0  0  0  0 
  9 11  1  0  0  0  0 
 11 12  1  0  0  0  0 
 12 13  1  0  0  0  0 
 12 14  1  0  0  0  0 
 12 15  1  0  0  0  0 
M  END
> <Name>
Phosphorodithioic acid, O,O-diethyl S-(((1,1-dimethylethyl)thio)methyl) ester

> <Source>
DSSTox2DMolFile

> <Tox>
6.810

> <CAS>
13071-79-9

$$$$

  CDK

 18 17  0  0  0  0  0  0  0  0999 V2000
    3.3240   -1.9913    0.0000 O   0  0  0  0  0  0  0  0  0  0  0  0
    1.9913   -1.9913    0.0000 P   0  0  0  0  0  0  0  0  0  0  0  0
    1.9913   -3.3240    0.0000 O   0  0  0  0  0  0  0  0  0  0  0  0
    0.6663   -1.9913    0.0000 O   0  0  0  0  0  0  0  0  0  0  0  0
    1.9913   -0.6663    0.0000 O   0  0  0  0  0  0  0  0  0  0  0  0
    3.1458   -3.9826    0.0000 C   0  0  0  0  0  0  0  0  0  0  0  0
    0.0000   -3.1458    0.0000 C   0  0  0  0  0  0  0  0  0  0  0  0
    3.1458   -0.0000    0.0000 C   0  0  0  0  0  0  0  0  0  0  0  0
    4.2925   -3.3240    0.0000 C   0  0  0  0  0  0  0  0  0  0  0  0
    3.1458   -5.3153    0.0000 C   0  0  0  0  0  0  0  0  0  0  0  0
    5.4470   -3.9826    0.0000 C   0  0  0  0  0  0  0  0  0  0  0  0
    4.2925   -1.9913    0.0000 Cl  0  0  0  0  0  0  0  0  0  0  0  0
    5.4470   -5.3153    0.0000 O   0  0  0  0  0  0  0  0  0  0  0  0
    6.5938   -3.3240    0.0000 N   0  0  0  0  0  0  0  0  0  0  0  0
    6.5938   -1.9913    0.0000 C   0  0  0  0  0  0  0  0  0  0  0  0
    7.7483   -3.9826    0.0000 C   0  0  0  0  0  0  0  0  0  0  0  0
    7.7483   -1.3250    0.0000 C   0  0  0  0  0  0  0  0  0  0  0  0
    7.7483   -5.3153    0.0000 C   0  0  0  0  0  0  0  0  0  0  0  0
  1  2  2  0  0  0  0 
  2  3  1  0  0  0  0 
  2  4  1  0  0  0  0 
  2  5  1  0  0  0  0 
  3  6  1  0  0  0  0 
  4  7  1  0  0  0  0 
  5  8  1  0  0  0  0 
  6  9  2  0  0  0  0 
  6 10  1  0  0  0  0 
  9 11  1  0  0  0  0 
  9 12  1  0  0  0  0 
 11 13  2  0  0  0  0 
 11 14  1  0  0  0  0 
 14 15  1  0  0  0  0 
 14 16  1  0  0  0  0 
 15 17  1  0  0  0  0 
 16 18  1  0  0  0  0 
M  END
> <Name>
Phosphoric acid, dimethyl ester, ester with 2-chloro-N,N-diethyl-3-hydroxycrotonamide

> <Source>
DSSTox2DMolFile

> <Tox>
3.477

> <CAS>
13171-21-6

$$$$

  CDK

 12 12  0  0  0  0  0  0  0  0999 V2000
    0.0000   -2.3041    0.0000 Br  0  0  0  0  0  0  0  0  0  0  0  0
    0.6656   -3.4585    0.0000 C   0  0  0  0  0  0  0  0  0  0  0  0
    0.0000   -4.6082    0.0000 Br  0  0  0  0  0  0  0  0  0  0  0  0
    1.9969   -3.4585    0.0000 C   0  0  0  0  0  0  0  0  0  0  0  0
    2.6579   -2.3041    0.0000 C   0  0  0  0  0  0  0  0  0  0  0  0
    2.6579   -4.6082    0.0000 C   0  0  0  0  0  0  0  0  0  0  0  0
    1.9969   -1.1544    0.0000 C   0  0  0  0  0  0  0  0  0  0  0  0
    3.9891   -2.3041    0.0000 C   0  0  0  0  0  0  0  0  0  0  0  0
    3.9891   -4.6082    0.0000 C   0  0  0  0  0  0  0  0  0  0  0  0
    0.6656   -1.1544    0.0000 Br  0  0  0  0  0  0  0  0  0  0  0  0
    2.6579   -0.0000    0.0000 Br  0  0  0  0  0  0  0  0  0  0  0  0
    4.6548   -3.4585    0.0000 C   0  0  0  0  0  0  0  0  0  0  0  0
  1  2  1  0  0  0  0 
  2  3  1  0  0  0  0 
  2  4  1  0  0  0  0 
  4  5  2  0  0  0  0 
  4  6  1  0  0  0  0 
  5  7  1  0  0  0  0 
  5  8  1  0  0  0  0 
  9  6  2  0  0  0  0 
  7 10  1  0  0  0  0 
  7 11  1  0  0  0  0 
  8 12  2  0  0  0  0 
 12  9  1  0  0  0  0 
M  END
> <Name>
alpha,alpha,alpha',alpha'-Tetrabromo-o-xylene

> <Source>
DSSTox2DMolFile

> <Tox>
5.985

> <CAS>
13209-15-9

$$$$

  CDK

 18 19  0  0  0  0  0  0  0  0999 V2000
   -4.4409   -0.0997   -0.0008 C   0  0  0  0  0  0  0  0  0  0  0  0
   -4.6030   -1.4937    0.0002 C   0  0  0  0  0  0  0  0  0  0  0  0
   -3.2103    0.4635   -0.0009 N   0  0  0  0  0  0  0  0  0  0  0  0
   -5.6619    0.7847   -0.0023 C   0  0  0  0  0  0  0  0  0  0  0  0
   -3.4782   -2.3076    0.0004 C   0  0  0  0  0  0  0  0  0  0  0  0
   -2.1013   -0.3308   -0.0004 C   0  0  0  0  0  0  0  0  0  0  0  0
   -5.4744    2.1724    0.0036 O   0  0  0  0  0  0  0  0  0  0  0  0
   -2.2138   -1.7260    0.0001 C   0  0  0  0  0  0  0  0  0  0  0  0
   -0.8055    0.3489   -0.0006 C   0  0  0  0  0  0  0  0  0  0  0  0
    0.3475   -0.3404   -0.0002 C   0  0  0  0  0  0  0  0  0  0  0  0
    1.6337    0.3156   -0.0004 C   0  0  0  0  0  0  0  0  0  0  0  0
    2.7449   -0.5013    0.0003 O   0  0  0  0  0  0  0  0  0  0  0  0
    2.0119    1.6498   -0.0012 C   0  0  0  0  0  0  0  0  0  0  0  0
    3.8452    0.3454   -0.0001 C   0  0  0  0  0  0  0  0  0  0  0  0
    3.4407    1.6693   -0.0010 C   0  0  0  0  0  0  0  0  0  0  0  0
    5.1875   -0.2712    0.0005 N   0  0  0  0  0  0  0  0  0  0  0  0
    6.1501    0.4706    0.0001 O   0  0  0  0  0  0  0  0  0  0  0  0
    5.3020   -1.4782    0.0013 O   0  0  0  0  0  0  0  0  0  0  0  0
  1  2  1  0  0  0  0 
  1  3  2  0  0  0  0 
  1  4  1  0  0  0  0 
  2  5  2  0  0  0  0 
  6  3  1  0  0  0  0 
  4  7  1  0  0  0  0 
  5  8  1  0  0  0  0 
  8  6  2  0  0  0  0 
  6  9  1  0  0  0  0 
  9 10  2  0  0  0  0 
 10 11  1  0  0  0  0 
 12 11  1  0  0  0  0 
 11 13  2  0  0  0  0 
 12 14  1  0  0  0  0 
 13 15  1  0  0  0  0 
 15 14  2  0  0  0  0 
 14 16  1  0  0  0  0 
 16 17  2  0  0  0  0 
 16 18  1  0  0  0  0 
M  CHG  1  16   1
M  CHG  1  18  -1
M  END
> <Name>
2-Pyridinemethanol, 6-(2-(5-nitro-2-furanyl)ethenyl)-

> <Source>
DougDB3DMolFile

> <Tox>
5.478

> <CAS>
13411-16-0

$$$$

  CDK

 12 12  0  0  0  0  0  0  0  0999 V2000
    2.6572   -3.4532    0.0000 C   0  0  0  0  0  0  0  0  0  0  0  0
    1.9929   -2.3041    0.0000 C   0  0  0  0  0  0  0  0  0  0  0  0
    3.9918   -3.4532    0.0000 C   0  0  0  0  0  0  0  0  0  0  0  0
    0.6643   -2.3041    0.0000 C   0  0  0  0  0  0  0  0  0  0  0  0
    2.6572   -1.1491    0.0000 C   0  0  0  0  0  0  0  0  0  0  0  0
    4.6561   -2.3041    0.0000 C   0  0  0  0  0  0  0  0  0  0  0  0
    0.0000   -1.1491    0.0000 O   0  0  0  0  0  0  0  0  0  0  0  0
    0.0000   -3.4532    0.0000 C   0  0  0  0  0  0  0  0  0  0  0  0
    1.9929   -0.0000    0.0000 Cl  0  0  0  0  0  0  0  0  0  0  0  0
    3.9918   -1.1491    0.0000 C   0  0  0  0  0  0  0  0  0  0  0  0
    5.9847   -2.3041    0.0000 Cl  0  0  0  0  0  0  0  0  0  0  0  0
    4.6561   -0.0000    0.0000 Cl  0  0  0  0  0  0  0  0  0  0  0  0
  1  2  2  0  0  0  0 
  1  3  1  0  0  0  0 
  2  4  1  0  0  0  0 
  2  5  1  0  0  0  0 
  6  3  2  0  0  0  0 
  4  7  2  0  0  0  0 
  4  8  1  0  0  0  0 
  5  9  1  0  0  0  0 
  5 10  2  0  0  0  0 
 10  6  1  0  0  0  0 
  6 11  1  0  0  0  0 
 10 12  1  0  0  0  0 
M  END
> <Name>
2',3',4'-Trichloroacetophenone

> <Source>
DSSTox2DMolFile

> <Tox>
5.048

> <CAS>
13608-87-2

$$$$

  CDK

 15 15  0  0  0  0  0  0  0  0999 V2000
    2.6599   -1.1570    0.0000 C   0  0  0  0  0  0  0  0  0  0  0  0
    1.9949   -0.0000    0.0000 O   0  0  0  0  0  0  0  0  0  0  0  0
    3.9898   -1.1570    0.0000 C   0  0  0  0  0  0  0  0  0  0  0  0
    1.9949   -2.3074    0.0000 C   0  0  0  0  0  0  0  0  0  0  0  0
    0.6650   -0.0000    0.0000 C   0  0  0  0  0  0  0  0  0  0  0  0
    4.6548   -0.0000    0.0000 O   0  0  0  0  0  0  0  0  0  0  0  0
    4.6548   -2.3074    0.0000 C   0  0  0  0  0  0  0  0  0  0  0  0
    2.6599   -3.4578    0.0000 C   0  0  0  0  0  0  0  0  0  0  0  0
    0.6650   -2.3074    0.0000 C   0  0  0  0  0  0  0  0  0  0  0  0
    5.9847   -0.0000    0.0000 C   0  0  0  0  0  0  0  0  0  0  0  0
    5.9847   -2.3074    0.0000 O   0  0  0  0  0  0  0  0  0  0  0  0
    3.9898   -3.4578    0.0000 C   0  0  0  0  0  0  0  0  0  0  0  0
    0.0000   -3.4578    0.0000 O   0  0  0  0  0  0  0  0  0  0  0  0
    0.0000   -1.1570    0.0000 C   0  0  0  0  0  0  0  0  0  0  0  0
    6.6497   -3.4578    0.0000 C   0  0  0  0  0  0  0  0  0  0  0  0
  1  2  1  0  0  0  0 
  1  3  2  0  0  0  0 
  1  4  1  0  0  0  0 
  2  5  1  0  0  0  0 
  3  6  1  0  0  0  0 
  3  7  1  0  0  0  0 
  8  4  2  0  0  0  0 
  4  9  1  0  0  0  0 
  6 10  1  0  0  0  0 
  7 11  1  0  0  0  0 
  7 12  2  0  0  0  0 
 12  8  1  0  0  0  0 
  9 13  2  0  0  0  0 
  9 14  1  0  0  0  0 
 11 15  1  0  0  0  0 
M  END
> <Name>
Ethanone, 1-(2,3,4-trimethoxyphenyl)-

> <Source>
DSSTox2DMolFile

> <Tox>
3.025

> <CAS>
13909-73-4

$$$$

  CDK

  5  4  0  0  0  0  0  0  0  0999 V2000
    0.0000   -1.3308    0.0000 C   0  0  0  0  0  0  0  0  0  0  0  0
    1.1511   -1.9945    0.0000 C   0  0  0  0  0  0  0  0  0  0  0  0
    2.3056   -1.3308    0.0000 C   0  0  0  0  0  0  0  0  0  0  0  0
    2.3056   -0.0000    0.0000 N   0  0  0  0  0  0  0  0  0  0  0  0
    3.4567   -1.9945    0.0000 C   0  0  0  0  0  0  0  0  0  0  0  0
  1  2  1  0  0  0  0 
  2  3  1  0  0  0  0 
  3  4  1  0  0  0  0 
  3  5  1  0  0  0  0 
M  END
> <Name>
sec-Butylamine

> <Source>
DSSTox2DMolFile

> <Tox>
2.425

> <CAS>
13952-84-6

$$$$

  CDK

 10 10  0  0  0  0  0  0  0  0999 V2000
    0.0000   -1.9973    0.0000 C   0  0  0  0  0  0  0  0  0  0  0  0
    1.1542   -2.6608    0.0000 C   0  0  0  0  0  0  0  0  0  0  0  0
    2.3014   -1.9973    0.0000 N   0  0  0  0  0  0  0  0  0  0  0  0
    3.4556   -2.6608    0.0000 C   0  0  0  0  0  0  0  0  0  0  0  0
    4.6098   -1.9973    0.0000 C   0  0  0  0  0  0  0  0  0  0  0  0
    4.6098   -0.6635    0.0000 C   0  0  0  0  0  0  0  0  0  0  0  0
    5.7570   -2.6608    0.0000 C   0  0  0  0  0  0  0  0  0  0  0  0
    5.7570   -0.0000    0.0000 C   0  0  0  0  0  0  0  0  0  0  0  0
    6.9112   -1.9973    0.0000 C   0  0  0  0  0  0  0  0  0  0  0  0
    6.9112   -0.6635    0.0000 C   0  0  0  0  0  0  0  0  0  0  0  0
  1  2  1  0  0  0  0 
  2  3  1  0  0  0  0 
  3  4  1  0  0  0  0 
  4  5  1  0  0  0  0 
  5  6  2  0  0  0  0 
  5  7  1  0  0  0  0 
  6  8  1  0  0  0  0 
  9  7  2  0  0  0  0 
  8 10  2  0  0  0  0 
 10  9  1  0  0  0  0 
M  END
> <Name>
Benzenemethanamine, N-ethyl-

> <Source>
DSSTox2DMolFile

> <Tox>
3.374

> <CAS>
14321-27-8

$$$$

  CDK

 15 16  0  0  0  0  0  0  0  0999 V2000
    5.7544   -1.3298    0.0000 C   0  0  0  0  0  0  0  0  0  0  0  0
    6.9069   -1.9987    0.0000 C   0  0  0  0  0  0  0  0  0  0  0  0
    4.6019   -1.9987    0.0000 C   0  0  0  0  0  0  0  0  0  0  0  0
    6.9069   -3.3285    0.0000 C   0  0  0  0  0  0  0  0  0  0  0  0
    4.6019   -3.3285    0.0000 C   0  0  0  0  0  0  0  0  0  0  0  0
    3.4575   -1.3298    0.0000 C   0  0  0  0  0  0  0  0  0  0  0  0
    8.0594   -3.9894    0.0000 Br  0  0  0  0  0  0  0  0  0  0  0  0
    5.7544   -3.9894    0.0000 C   0  0  0  0  0  0  0  0  0  0  0  0
    3.4575   -0.0000    0.0000 O   0  0  0  0  0  0  0  0  0  0  0  0
    2.3050   -1.9987    0.0000 C   0  0  0  0  0  0  0  0  0  0  0  0
    2.3050   -3.3285    0.0000 C   0  0  0  0  0  0  0  0  0  0  0  0
    1.1525   -1.3298    0.0000 C   0  0  0  0  0  0  0  0  0  0  0  0
    1.1525   -3.9894    0.0000 C   0  0  0  0  0  0  0  0  0  0  0  0
    0.0000   -1.9987    0.0000 N   0  0  0  0  0  0  0  0  0  0  0  0
    0.0000   -3.3285    0.0000 C   0  0  0  0  0  0  0  0  0  0  0  0
  1  2  2  0  0  0  0 
  1  3  1  0  0  0  0 
  2  4  1  0  0  0  0 
  5  3  2  0  0  0  0 
  3  6  1  0  0  0  0 
  4  7  1  0  0  0  0 
  4  8  2  0  0  0  0 
  8  5  1  0  0  0  0 
  6  9  2  0  0  0  0 
  6 10  1  0  0  0  0 
 10 11  2  0  0  0  0 
 10 12  1  0  0  0  0 
 11 13  1  0  0  0  0 
 14 12  2  0  0  0  0 
 13 15  2  0  0  0  0 
 15 14  1  0  0  0  0 
M  END
> <Name>
4-Bromophenyl 3-pyridyl ketone

> <Source>
DSSTox2DMolFile

> <Tox>
4.109

> <CAS>
14548-45-9

$$$$

  CDK

 14 15  0  0  0  0  0  0  0  0999 V2000
    5.7567   -1.3269    0.0000 C   0  0  0  0  0  0  0  0  0  0  0  0
    6.9108   -1.9903    0.0000 C   0  0  0  0  0  0  0  0  0  0  0  0
    4.6095   -1.9903    0.0000 C   0  0  0  0  0  0  0  0  0  0  0  0
    6.9108   -3.3241    0.0000 C   0  0  0  0  0  0  0  0  0  0  0  0
    4.6095   -3.3241    0.0000 C   0  0  0  0  0  0  0  0  0  0  0  0
    3.4554   -1.3269    0.0000 C   0  0  0  0  0  0  0  0  0  0  0  0
    5.7567   -3.9875    0.0000 C   0  0  0  0  0  0  0  0  0  0  0  0
    3.4554   -0.0000    0.0000 O   0  0  0  0  0  0  0  0  0  0  0  0
    2.3013   -1.9903    0.0000 C   0  0  0  0  0  0  0  0  0  0  0  0
    2.3013   -3.3241    0.0000 C   0  0  0  0  0  0  0  0  0  0  0  0
    1.1541   -1.3269    0.0000 C   0  0  0  0  0  0  0  0  0  0  0  0
    1.1541   -3.9875    0.0000 C   0  0  0  0  0  0  0  0  0  0  0  0
    0.0000   -1.9903    0.0000 C   0  0  0  0  0  0  0  0  0  0  0  0
    0.0000   -3.3241    0.0000 N   0  0  0  0  0  0  0  0  0  0  0  0
  1  2  2  0  0  0  0 
  1  3  1  0  0  0  0 
  2  4  1  0  0  0  0 
  5  3  2  0  0  0  0 
  3  6  1  0  0  0  0 
  4  7  2  0  0  0  0 
  7  5  1  0  0  0  0 
  6  8  2  0  0  0  0 
  6  9  1  0  0  0  0 
  9 10  2  0  0  0  0 
  9 11  1  0  0  0  0 
 10 12  1  0  0  0  0 
 13 11  2  0  0  0  0 
 12 14  2  0  0  0  0 
 14 13  1  0  0  0  0 
M  END
> <Name>
Methanone, phenyl-4-pyridinyl-

> <Source>
DSSTox2DMolFile

> <Tox>
3.250

> <CAS>
14548-46-0

$$$$

  CDK

  9  9  0  0  0  0  0  0  0  0999 V2000
    4.0331   -0.0000    0.0000 C   0  0  0  0  0  0  0  0  0  0  0  0
    3.3686   -1.1504    0.0000 C   0  0  0  0  0  0  0  0  0  0  0  0
    4.5831   -1.6912    0.0000 C   0  0  0  0  0  0  0  0  0  0  0  0
    2.9561   -2.4153    0.0000 C   0  0  0  0  0  0  0  0  0  0  0  0
    2.2915   -0.3666    0.0000 O   0  0  0  0  0  0  0  0  0  0  0  0
    1.6270   -2.4153    0.0000 C   0  0  0  0  0  0  0  0  0  0  0  0
    1.2145   -1.1504    0.0000 C   0  0  0  0  0  0  0  0  0  0  0  0
    0.0000   -1.6912    0.0000 C   0  0  0  0  0  0  0  0  0  0  0  0
    0.5500   -0.0000    0.0000 C   0  0  0  0  0  0  0  0  0  0  0  0
  1  2  1  0  0  0  0 
  2  3  1  0  0  0  0 
  2  4  1  0  0  0  0 
  2  5  1  0  0  0  0 
  4  6  1  0  0  0  0 
  7  5  1  0  0  0  0 
  6  7  1  0  0  0  0 
  7  8  1  0  0  0  0 
  7  9  1  0  0  0  0 
M  END
> <Name>
Furan, tetrahydro-2,2,5,5-tetramethyl-

> <Source>
DSSTox2DMolFile

> <Tox>
2.883

> <CAS>
15045-43-9

$$$$

  CDK

 23 23  0  0  0  0  0  0  0  0999 V2000
   -2.0323   -1.8742   -0.5500 C   0  0  0  0  0  0  0  0  0  0  0  0
   -0.7392   -2.5873   -0.9874 C   0  0  0  0  0  0  0  0  0  0  0  0
   -2.7865   -1.2104   -1.2248 O   0  0  0  0  0  0  0  0  0  0  0  0
   -2.3095   -2.1234    0.7667 O   0  0  0  0  0  0  0  0  0  0  0  0
   -1.0743   -3.7194   -1.9508 C   0  0  0  0  0  0  0  0  0  0  0  0
    0.0899   -1.6724   -1.7058 O   0  0  0  0  0  0  0  0  0  0  0  0
   -3.3431   -1.4181    1.4334 C   0  0  0  0  0  0  0  0  0  0  0  0
    1.0200   -0.9565   -0.9848 C   0  0  0  0  0  0  0  0  0  0  0  0
   -2.8095   -0.2204    2.2545 C   0  0  0  0  0  0  0  0  0  0  0  0
    1.7343   -0.0038   -1.7371 C   0  0  0  0  0  0  0  0  0  0  0  0
    1.2974   -1.1309    0.3743 C   0  0  0  0  0  0  0  0  0  0  0  0
   -1.7174   -0.6423    3.2325 C   0  0  0  0  0  0  0  0  0  0  0  0
   -2.2345    0.7834    1.4238 O   0  0  0  0  0  0  0  0  0  0  0  0
    2.7178    0.7664   -1.1258 C   0  0  0  0  0  0  0  0  0  0  0  0
    1.4192    0.2228   -3.3728 Cl  0  0  0  0  0  0  0  0  0  0  0  0
    2.2840   -0.3530    0.9722 C   0  0  0  0  0  0  0  0  0  0  0  0
   -3.1746    1.7066    0.8913 C   0  0  0  0  0  0  0  0  0  0  0  0
    2.9922    0.5911    0.2283 C   0  0  0  0  0  0  0  0  0  0  0  0
    2.6205   -0.5546    2.6045 Cl  0  0  0  0  0  0  0  0  0  0  0  0
   -2.3903    2.6751    0.0109 C   0  0  0  0  0  0  0  0  0  0  0  0
    4.1790    1.5223    0.9680 Cl  0  0  0  0  0  0  0  0  0  0  0  0
   -3.3191    3.7210   -0.5846 C   0  0  0  0  0  0  0  0  0  0  0  0
   -2.5625    4.6933   -1.4610 C   0  0  0  0  0  0  0  0  0  0  0  0
  1  2  1  0  0  0  0 
  1  3  2  0  0  0  0 
  1  4  1  0  0  0  0 
  2  5  1  0  0  0  0 
  2  6  1  0  0  0  0 
  4  7  1  0  0  0  0 
  6  8  1  0  0  0  0 
  7  9  1  0  0  0  0 
  8 10  1  0  0  0  0 
  8 11  2  0  0  0  0 
  9 12  1  0  0  0  0 
  9 13  1  0  0  0  0 
 10 14  2  0  0  0  0 
 10 15  1  0  0  0  0 
 16 11  1  0  0  0  0 
 13 17  1  0  0  0  0 
 14 18  1  0  0  0  0 
 18 16  2  0  0  0  0 
 16 19  1  0  0  0  0 
 17 20  1  0  0  0  0 
 18 21  1  0  0  0  0 
 20 22  1  0  0  0  0 
 22 23  1  0  0  0  0 
M  END
> <Name>
Propanoic acid, 2-(2,4,5-trichlorophenoxy)-, 2-butoxypropyl ester

> <Source>
DougDB3DMolFile

> <Tox>
4.727

> <CAS>
15067-52-4

$$$$

  CDK

 10 10  0  0  0  0  0  0  0  0999 V2000
    2.6582   -3.4542    0.0000 N   0  0  0  0  0  0  0  0  0  0  0  0
    1.9971   -2.3044    0.0000 C   0  0  0  0  0  0  0  0  0  0  0  0
    3.9896   -3.4542    0.0000 C   0  0  0  0  0  0  0  0  0  0  0  0
    0.6657   -2.3044    0.0000 N   0  0  0  0  0  0  0  0  0  0  0  0
    2.6582   -1.1499    0.0000 C   0  0  0  0  0  0  0  0  0  0  0  0
    4.6553   -2.3044    0.0000 C   0  0  0  0  0  0  0  0  0  0  0  0
    0.0000   -1.1499    0.0000 O   0  0  0  0  0  0  0  0  0  0  0  0
    0.0000   -3.4542    0.0000 O   0  0  0  0  0  0  0  0  0  0  0  0
    1.9971   -0.0000    0.0000 O   0  0  0  0  0  0  0  0  0  0  0  0
    3.9896   -1.1499    0.0000 C   0  0  0  0  0  0  0  0  0  0  0  0
  1  2  2  0  0  0  0 
  1  3  1  0  0  0  0 
  2  4  1  0  0  0  0 
  2  5  1  0  0  0  0 
  6  3  2  0  0  0  0 
  4  7  1  0  0  0  0 
  4  8  2  0  0  0  0 
  5  9  1  0  0  0  0 
  5 10  2  0  0  0  0 
 10  6  1  0  0  0  0 
M  CHG  1   4   1
M  CHG  1   7  -1
M  END
> <Name>
3-Pyridinol, 2-nitro-

> <Source>
DSSTox2DMolFile

> <Tox>
2.924

> <CAS>
15128-82-2

$$$$

  CDK

  7  6  0  0  0  0  0  0  0  0999 V2000
    1.5700    0.3703   -0.0001 C   0  0  0  0  0  0  0  0  0  0  0  0
    0.4562   -0.6762   -0.0005 C   0  0  0  0  0  0  0  0  0  0  0  0
    2.9359   -0.1774   -0.0001 N   0  0  0  0  0  0  0  0  0  0  0  0
   -0.9388   -0.0277    0.0000 C   0  0  0  0  0  0  0  0  0  0  0  0
   -2.0014   -1.1254   -0.0001 C   0  0  0  0  0  0  0  0  0  0  0  0
   -1.1056    0.8322    1.2518 C   0  0  0  0  0  0  0  0  0  0  0  0
   -1.1062    0.8331   -1.2512 C   0  0  0  0  0  0  0  0  0  0  0  0
  1  2  1  0  0  0  0 
  1  3  1  0  0  0  0 
  2  4  1  0  0  0  0 
  4  5  1  0  0  0  0 
  4  6  1  0  0  0  0 
  4  7  1  0  0  0  0 
M  END
> <Name>
3,3-Dimethylbutylamine

> <Source>
DougDB3DMolFile

> <Tox>
2.226

> <CAS>
15673-00-4

$$$$

  CDK

 11 11  0  0  0  0  0  0  0  0999 V2000
    4.3102   -1.1258    0.0000 C   0  0  0  0  0  0  0  0  0  0  0  0
    3.4104   -2.1150    0.0000 C   0  0  0  0  0  0  0  0  0  0  0  0
    2.3412   -1.3331    0.0000 C   0  0  0  0  0  0  0  0  0  0  0  0
    2.9959   -3.3822    0.0000 N   0  0  0  0  0  0  0  0  0  0  0  0
    4.7106   -2.3883    0.0000 C   0  0  0  0  0  0  0  0  0  0  0  0
    2.3412   -0.0000    0.0000 O   0  0  0  0  0  0  0  0  0  0  0  0
    1.2671   -2.1150    0.0000 N   0  0  0  0  0  0  0  0  0  0  0  0
    1.6675   -3.3822    0.0000 C   0  0  0  0  0  0  0  0  0  0  0  0
    3.7826   -4.4562    0.0000 Br  0  0  0  0  0  0  0  0  0  0  0  0
    0.0000   -1.7005    0.0000 Cl  0  0  0  0  0  0  0  0  0  0  0  0
    0.8950   -4.4562    0.0000 O   0  0  0  0  0  0  0  0  0  0  0  0
  1  2  1  0  0  0  0 
  2  3  1  0  0  0  0 
  2  4  1  0  0  0  0 
  2  5  1  0  0  0  0 
  3  6  2  0  0  0  0 
  3  7  1  0  0  0  0 
  8  4  1  0  0  0  0 
  4  9  1  0  0  0  0 
  7  8  1  0  0  0  0 
  7 10  1  0  0  0  0 
  8 11  2  0  0  0  0 
M  END
> <Name>
2,4-Imidazolidinedione, 1-bromo-3-chloro-5,5-dimethyl-

> <Source>
DSSTox2DMolFile

> <Tox>
1.234

> <CAS>
16079-88-2

$$$$

  CDK

 15 15  0  0  0  0  0  0  0  0999 V2000
    9.9785   -0.0000    0.0000 N   0  0  0  0  0  0  0  0  0  0  0  0
    9.3099   -1.1575    0.0000 C   0  0  0  0  0  0  0  0  0  0  0  0
    9.9785   -2.3050    0.0000 C   0  0  0  0  0  0  0  0  0  0  0  0
    7.9828   -1.1575    0.0000 C   0  0  0  0  0  0  0  0  0  0  0  0
    9.3099   -3.4625    0.0000 C   0  0  0  0  0  0  0  0  0  0  0  0
    7.3142   -2.3050    0.0000 C   0  0  0  0  0  0  0  0  0  0  0  0
    7.9828   -3.4625    0.0000 C   0  0  0  0  0  0  0  0  0  0  0  0
    7.3142   -4.6101    0.0000 C   0  0  0  0  0  0  0  0  0  0  0  0
    5.9871   -4.6101    0.0000 C   0  0  0  0  0  0  0  0  0  0  0  0
    5.3185   -3.4625    0.0000 C   0  0  0  0  0  0  0  0  0  0  0  0
    3.9914   -3.4625    0.0000 C   0  0  0  0  0  0  0  0  0  0  0  0
    3.3228   -2.3050    0.0000 C   0  0  0  0  0  0  0  0  0  0  0  0
    1.9957   -2.3050    0.0000 C   0  0  0  0  0  0  0  0  0  0  0  0
    1.3271   -1.1575    0.0000 C   0  0  0  0  0  0  0  0  0  0  0  0
    0.0000   -1.1575    0.0000 C   0  0  0  0  0  0  0  0  0  0  0  0
  1  2  1  0  0  0  0 
  2  3  2  0  0  0  0 
  2  4  1  0  0  0  0 
  3  5  1  0  0  0  0 
  6  4  2  0  0  0  0 
  5  7  2  0  0  0  0 
  7  6  1  0  0  0  0 
  7  8  1  0  0  0  0 
  8  9  1  0  0  0  0 
  9 10  1  0  0  0  0 
 10 11  1  0  0  0  0 
 11 12  1  0  0  0  0 
 12 13  1  0  0  0  0 
 13 14  1  0  0  0  0 
 14 15  1  0  0  0  0 
M  END
> <Name>
4-Octylaniline

> <Source>
DSSTox2DMolFile

> <Tox>
6.233

> <CAS>
16245-79-7

$$$$

  CDK

  7  6  0  0  0  0  0  0  0  0999 V2000
    1.3378   -1.3239    0.0000 P   0  0  0  0  0  0  0  0  0  0  0  0
    1.3378   -2.6524    0.0000 C   0  0  0  0  0  0  0  0  0  0  0  0
    0.0000   -1.3239    0.0000 O   0  0  0  0  0  0  0  0  0  0  0  0
    1.3378   -0.0000    0.0000 O   0  0  0  0  0  0  0  0  0  0  0  0
    2.6756   -1.3239    0.0000 O   0  0  0  0  0  0  0  0  0  0  0  0
    0.1905   -3.3213    0.0000 C   0  0  0  0  0  0  0  0  0  0  0  0
    0.1905   -4.6452    0.0000 Cl  0  0  0  0  0  0  0  0  0  0  0  0
  1  2  1  0  0  0  0 
  1  3  2  0  0  0  0 
  1  4  1  0  0  0  0 
  1  5  1  0  0  0  0 
  2  6  1  0  0  0  0 
  7  6  1  0  0  0  0 
M  END
> <Name>
Phosphonic acid, (2-chloroethyl)-

> <Source>
DSSTox2DMolFile

> <Tox>
3.046

> <CAS>
16672-87-0

$$$$

  CDK

 10  9  0  0  0  0  0  0  0  0999 V2000
    6.9070   -1.9961    0.0000 C   0  0  0  0  0  0  0  0  0  0  0  0
    5.7535   -1.3261    0.0000 S   0  0  0  0  0  0  0  0  0  0  0  0
    4.6069   -1.9961    0.0000 C   0  0  0  0  0  0  0  0  0  0  0  0
    4.6069   -3.3223    0.0000 C   0  0  0  0  0  0  0  0  0  0  0  0
    3.4535   -1.3261    0.0000 N   0  0  0  0  0  0  0  0  0  0  0  0
    2.3000   -1.9961    0.0000 O   0  0  0  0  0  0  0  0  0  0  0  0
    1.1535   -1.3261    0.0000 C   0  0  0  0  0  0  0  0  0  0  0  0
    1.1535   -0.0000    0.0000 O   0  0  0  0  0  0  0  0  0  0  0  0
    0.0000   -1.9961    0.0000 N   0  0  0  0  0  0  0  0  0  0  0  0
    0.0000   -3.3223    0.0000 C   0  0  0  0  0  0  0  0  0  0  0  0
  1  2  1  0  0  0  0 
  2  3  1  0  0  0  0 
  3  4  1  0  0  0  0 
  3  5  2  0  0  0  0 
  5  6  1  0  0  0  0 
  6  7  1  0  0  0  0 
  7  8  2  0  0  0  0 
  7  9  1  0  0  0  0 
  9 10  1  0  0  0  0 
M  END
> <Name>
Ethanimidothioic acid, N-(((methylamino)carbonyl)oxy)-, methyl ester (9CI)

> <Source>
DSSTox2DMolFile

> <Tox>
4.886

> <CAS>
16752-77-5

$$$$

  CDK

  8  8  0  0  0  0  0  0  0  0999 V2000
    2.3040   -2.6588    0.0000 N   0  0  0  0  0  0  0  0  0  0  0  0
    1.1520   -1.9953    0.0000 C   0  0  0  0  0  0  0  0  0  0  0  0
    3.4560   -1.9953    0.0000 C   0  0  0  0  0  0  0  0  0  0  0  0
    0.0000   -2.6588    0.0000 O   0  0  0  0  0  0  0  0  0  0  0  0
    1.1520   -0.6635    0.0000 C   0  0  0  0  0  0  0  0  0  0  0  0
    3.4560   -0.6635    0.0000 C   0  0  0  0  0  0  0  0  0  0  0  0
    4.6080   -2.6588    0.0000 Cl  0  0  0  0  0  0  0  0  0  0  0  0
    2.3040   -0.0000    0.0000 C   0  0  0  0  0  0  0  0  0  0  0  0
  1  2  2  0  0  0  0 
  1  3  1  0  0  0  0 
  2  4  1  0  0  0  0 
  2  5  1  0  0  0  0 
  6  3  2  0  0  0  0 
  3  7  1  0  0  0  0 
  5  8  2  0  0  0  0 
  8  6  1  0  0  0  0 
M  END
> <Name>
6-Chloropyridin-2-ol

> <Source>
DSSTox2DMolFile

> <Tox>
2.782

> <CAS>
16879-02-0

$$$$

  CDK

 26 27  0  0  0  0  0  0  0  0999 V2000
    0.6177   -2.7165    3.8076 Cl  0  0  0  0  0  0  0  0  0  0  0  0
   -0.8970   -2.2011    3.1584 C   0  0  0  0  0  0  0  0  0  0  0  0
   -0.9008   -1.1917    2.1958 C   0  0  0  0  0  0  0  0  0  0  0  0
   -2.0997   -2.7709    3.5760 C   0  0  0  0  0  0  0  0  0  0  0  0
   -2.1077   -0.7840    1.6815 C   0  0  0  0  0  0  0  0  0  0  0  0
   -3.3061   -2.3312    3.0312 C   0  0  0  0  0  0  0  0  0  0  0  0
   -2.1073   -3.8557    4.6089 C   0  0  0  0  0  0  0  0  0  0  0  0
   -2.0904    0.3299    0.6216 C   0  0  0  0  0  0  0  0  0  0  0  0
   -3.3099   -1.3217    2.0686 C   0  0  0  0  0  0  0  0  0  0  0  0
   -4.5693   -2.9221    3.4620 C   0  0  0  0  0  0  0  0  0  0  0  0
   -2.6970   -0.0899   -0.7365 C   0  0  0  0  0  0  0  0  0  0  0  0
   -2.9021    1.5418    1.1281 C   0  0  0  0  0  0  0  0  0  0  0  0
   -0.6347    0.7697    0.3542 C   0  0  0  0  0  0  0  0  0  0  0  0
   -4.4873   -0.8879    1.5320 O   0  0  0  0  0  0  0  0  0  0  0  0
   -5.1794   -2.4050    4.4084 O   0  0  0  0  0  0  0  0  0  0  0  0
   -4.9992   -4.0350    2.7303 N   0  0  0  0  0  0  0  0  0  0  0  0
   -6.1838   -4.7931    2.8998 C   0  0  0  0  0  0  0  0  0  0  0  0
   -6.4563   -5.8755    2.0793 C   0  0  0  0  0  0  0  0  0  0  0  0
   -7.0557   -4.4166    3.9094 C   0  0  0  0  0  0  0  0  0  0  0  0
   -5.3847   -6.3635    0.8151 Cl  0  0  0  0  0  0  0  0  0  0  0  0
   -7.6316   -6.6012    2.2730 C   0  0  0  0  0  0  0  0  0  0  0  0
   -8.2311   -5.1422    4.1030 C   0  0  0  0  0  0  0  0  0  0  0  0
   -8.5190   -6.2346    3.2848 C   0  0  0  0  0  0  0  0  0  0  0  0
   -9.7153   -6.9739    3.4834 N   0  0  0  0  0  0  0  0  0  0  0  0
  -10.4950   -6.6236    4.4009 O   0  0  0  0  0  0  0  0  0  0  0  0
   -9.9510   -7.9512    2.7338 O   0  0  0  0  0  0  0  0  0  0  0  0
  1  2  1  0  0  0  0 
  3  2  1  0  0  0  0 
  4  2  2  0  0  0  0 
  5  3  2  0  0  0  0 
  6  4  1  0  0  0  0 
  4  7  1  0  0  0  0 
  8  5  1  0  0  0  0 
  5  9  1  0  0  0  0 
  9  6  2  0  0  0  0 
  6 10  1  0  0  0  0 
  8 11  1  0  0  0  0 
  8 12  1  0  0  0  0 
  8 13  1  0  0  0  0 
 14  9  1  0  0  0  0 
 15 10  2  0  0  0  0 
 16 10  1  0  0  0  0 
 16 17  1  0  0  0  0 
 17 18  2  0  0  0  0 
 17 19  1  0  0  0  0 
 20 18  1  0  0  0  0 
 18 21  1  0  0  0  0 
 19 22  2  0  0  0  0 
 21 23  2  0  0  0  0 
 22 23  1  0  0  0  0 
 24 23  1  0  0  0  0 
 25 24  1  0  0  0  0 
 26 24  2  0  0  0  0 
M  CHG  1  24   1
M  CHG  1  25  -1
M  END
> <Name>
Benzamide, 3-chloro-N-(2-chloro-4-nitrophenyl)-5-(1,1-dimethylethyl)-6-hydroxy-2-methyl-

> <Source>
Chemidplus3DMolFile

> <Tox>
7.691

> <CAS>
17109-36-3

$$$$

  CDK

  9  9  0  0  0  0  0  0  0  0999 V2000
    0.0000   -2.6589    0.0000 N   0  0  0  0  0  0  0  0  0  0  0  0
    1.1520   -1.9953    0.0000 C   0  0  0  0  0  0  0  0  0  0  0  0
    1.1520   -0.6636    0.0000 N   0  0  0  0  0  0  0  0  0  0  0  0
    2.3041   -2.6589    0.0000 N   0  0  0  0  0  0  0  0  0  0  0  0
    2.3041   -0.0000    0.0000 N   0  0  0  0  0  0  0  0  0  0  0  0
    3.4561   -1.9953    0.0000 C   0  0  0  0  0  0  0  0  0  0  0  0
    3.4561   -0.6636    0.0000 C   0  0  0  0  0  0  0  0  0  0  0  0
    4.6082   -2.6589    0.0000 C   0  0  0  0  0  0  0  0  0  0  0  0
    4.6082   -0.0000    0.0000 C   0  0  0  0  0  0  0  0  0  0  0  0
  1  2  1  0  0  0  0 
  2  3  2  0  0  0  0 
  2  4  1  0  0  0  0 
  3  5  1  0  0  0  0 
  6  4  2  0  0  0  0 
  5  7  2  0  0  0  0 
  7  6  1  0  0  0  0 
  6  8  1  0  0  0  0 
  7  9  1  0  0  0  0 
M  END
> <Name>
1,2,4-Triazin-3-amine, 5,6-dimethyl-

> <Source>
DSSTox2DMolFile

> <Tox>
2.115

> <CAS>
17584-12-2

$$$$

  CDK

 14 14  0  0  0  0  0  0  0  0999 V2000
    0.0000   -1.1491    0.0000 O   0  0  0  0  0  0  0  0  0  0  0  0
    0.6623   -2.2981    0.0000 C   0  0  0  0  0  0  0  0  0  0  0  0
    1.9949   -2.2981    0.0000 C   0  0  0  0  0  0  0  0  0  0  0  0
    2.6572   -1.1491    0.0000 C   0  0  0  0  0  0  0  0  0  0  0  0
    2.6572   -3.4551    0.0000 C   0  0  0  0  0  0  0  0  0  0  0  0
    3.9898   -1.1491    0.0000 C   0  0  0  0  0  0  0  0  0  0  0  0
    3.9898   -3.4551    0.0000 C   0  0  0  0  0  0  0  0  0  0  0  0
    1.9949   -4.6042    0.0000 O   0  0  0  0  0  0  0  0  0  0  0  0
    4.6521   -2.2981    0.0000 C   0  0  0  0  0  0  0  0  0  0  0  0
    5.9846   -2.2981    0.0000 N   0  0  0  0  0  0  0  0  0  0  0  0
    6.6469   -3.4551    0.0000 C   0  0  0  0  0  0  0  0  0  0  0  0
    6.6469   -1.1491    0.0000 C   0  0  0  0  0  0  0  0  0  0  0  0
    7.9795   -3.4551    0.0000 C   0  0  0  0  0  0  0  0  0  0  0  0
    5.9846   -0.0000    0.0000 C   0  0  0  0  0  0  0  0  0  0  0  0
  1  2  2  0  0  0  0 
  2  3  1  0  0  0  0 
  3  4  2  0  0  0  0 
  3  5  1  0  0  0  0 
  4  6  1  0  0  0  0 
  7  5  2  0  0  0  0 
  5  8  1  0  0  0  0 
  6  9  2  0  0  0  0 
  9  7  1  0  0  0  0 
  9 10  1  0  0  0  0 
 10 11  1  0  0  0  0 
 10 12  1  0  0  0  0 
 11 13  1  0  0  0  0 
 12 14  1  0  0  0  0 
M  END
> <Name>
Salicylaldehyde, 4-(diethylamino)- (6CI,8CI)

> <Source>
DSSTox2DMolFile

> <Tox>
4.557

> <CAS>
17754-90-4

$$$$

  CDK

 10 11  0  0  0  0  0  0  0  0999 V2000
    5.5661    1.8620    2.3010 C   0  0  0  0  0  0  0  0  0  0  0  0
    4.0893    2.1232    2.0564 C   0  0  0  0  0  0  0  0  0  0  0  0
    3.5055    0.9428    1.3147 C   0  0  0  0  0  0  0  0  0  0  0  0
    3.8308    3.5684    1.4951 C   0  0  0  0  0  0  0  0  0  0  0  0
    3.3542    2.6353    3.3493 C   0  0  0  0  0  0  0  0  0  0  0  0
    3.7739    4.0810    2.9595 C   0  0  0  0  0  0  0  0  0  0  0  0
    2.4287    3.6708    0.9094 C   0  0  0  0  0  0  0  0  0  0  0  0
    1.8740    2.5401    3.1380 C   0  0  0  0  0  0  0  0  0  0  0  0
    1.3469    3.2609    1.9256 C   0  0  0  0  0  0  0  0  0  0  0  0
    1.0730    1.8803    3.9725 C   0  0  0  0  0  0  0  0  0  0  0  0
  1  2  1  0  0  0  0 
  2  3  1  0  0  0  0 
  4  2  1  0  0  0  0 
  5  2  1  0  0  0  0 
  6  4  1  0  0  0  0 
  7  4  1  0  0  0  0 
  5  6  1  0  0  0  0 
  5  8  1  0  0  0  0 
  9  7  1  0  0  0  0 
  8  9  1  0  0  0  0 
  8 10  2  0  0  0  0 
M  END
> <Name>
Bicyclo(3.1.1)heptane, 6,6-dimethyl-2-methylene-, (1S,5S)-

> <Source>
NIST3DMolFile

> <Tox>
5.434

> <CAS>
18172-67-3

$$$$

  CDK

 16 16  0  0  0  0  0  0  0  0999 V2000
    0.8493    0.6734   -0.0377 C   0  0  0  0  0  0  0  0  0  0  0  0
   -0.5381    0.4417   -0.0119 C   0  0  0  0  0  0  0  0  0  0  0  0
    1.7124   -0.4330    0.0097 C   0  0  0  0  0  0  0  0  0  0  0  0
    1.3793    2.0639   -0.1090 C   0  0  0  0  0  0  0  0  0  0  0  0
   -1.0381   -0.8675    0.0392 C   0  0  0  0  0  0  0  0  0  0  0  0
   -1.4899    1.6363   -0.0696 N   0  0  0  0  0  0  0  0  0  0  0  0
    1.2127   -1.7318    0.0668 C   0  0  0  0  0  0  0  0  0  0  0  0
    3.2217   -0.2771    0.0010 N   0  0  0  0  0  0  0  0  0  0  0  0
   -0.1597   -1.9491    0.0751 C   0  0  0  0  0  0  0  0  0  0  0  0
   -2.5278   -1.1858    0.0737 N   0  0  0  0  0  0  0  0  0  0  0  0
   -2.1485    1.7683   -1.0761 O   0  0  0  0  0  0  0  0  0  0  0  0
   -1.5127    2.4052    0.8604 O   0  0  0  0  0  0  0  0  0  0  0  0
    3.8119   -0.3682    1.0533 O   0  0  0  0  0  0  0  0  0  0  0  0
    3.7758   -0.0888   -1.0584 O   0  0  0  0  0  0  0  0  0  0  0  0
   -2.9242   -2.1416   -0.5505 O   0  0  0  0  0  0  0  0  0  0  0  0
   -3.2434   -0.4856    0.7537 O   0  0  0  0  0  0  0  0  0  0  0  0
  1  2  1  0  0  0  0 
  1  3  2  0  0  0  0 
  1  4  1  0  0  0  0 
  2  5  2  0  0  0  0 
  2  6  1  0  0  0  0 
  3  7  1  0  0  0  0 
  3  8  1  0  0  0  0 
  9  5  1  0  0  0  0 
  5 10  1  0  0  0  0 
  6 11  2  0  0  0  0 
  6 12  1  0  0  0  0 
  9  7  2  0  0  0  0 
  8 13  2  0  0  0  0 
  8 14  1  0  0  0  0 
 10 15  2  0  0  0  0 
 10 16  1  0  0  0  0 
M  CHG  1   6   1
M  CHG  1   8   1
M  CHG  1  10   1
M  CHG  1  12  -1
M  CHG  1  14  -1
M  CHG  1  16  -1
M  END
> <Name>
Toluene, 2,3,6-trinitro-

> <Source>
DougDB3DMolFile

> <Tox>
6.317

> <CAS>
18292-97-2

$$$$

  CDK

  8  8  0  0  0  0  0  0  0  0999 V2000
    2.3040   -2.6588    0.0000 N   0  0  0  0  0  0  0  0  0  0  0  0
    1.1520   -1.9953    0.0000 C   0  0  0  0  0  0  0  0  0  0  0  0
    3.4560   -1.9953    0.0000 C   0  0  0  0  0  0  0  0  0  0  0  0
    0.0000   -2.6588    0.0000 C   0  0  0  0  0  0  0  0  0  0  0  0
    1.1520   -0.6635    0.0000 C   0  0  0  0  0  0  0  0  0  0  0  0
    3.4560   -0.6635    0.0000 C   0  0  0  0  0  0  0  0  0  0  0  0
    4.6080   -2.6588    0.0000 Cl  0  0  0  0  0  0  0  0  0  0  0  0
    2.3040   -0.0000    0.0000 C   0  0  0  0  0  0  0  0  0  0  0  0
  1  2  2  0  0  0  0 
  1  3  1  0  0  0  0 
  2  4  1  0  0  0  0 
  2  5  1  0  0  0  0 
  6  3  2  0  0  0  0 
  3  7  1  0  0  0  0 
  5  8  2  0  0  0  0 
  8  6  1  0  0  0  0 
M  END
> <Name>
6-Chloro-2-methylpyridine

> <Source>
DSSTox2DMolFile

> <Tox>
2.740

> <CAS>
18368-63-3

$$$$

  CDK

 22 22  0  0  0  0  0  0  0  0999 V2000
    2.9219   -1.0691   -0.0962 C   0  0  0  0  0  0  0  0  0  0  0  0
    2.0447   -2.2746   -0.4829 C   0  0  0  0  0  0  0  0  0  0  0  0
    3.3698   -0.7927    0.9931 O   0  0  0  0  0  0  0  0  0  0  0  0
    3.2207   -0.3037   -1.1904 O   0  0  0  0  0  0  0  0  0  0  0  0
    2.8635   -3.5566   -0.3853 C   0  0  0  0  0  0  0  0  0  0  0  0
    0.9742   -2.4037    0.4545 O   0  0  0  0  0  0  0  0  0  0  0  0
    3.9113    0.9299   -1.0429 C   0  0  0  0  0  0  0  0  0  0  0  0
   -0.2081   -1.7590    0.1640 C   0  0  0  0  0  0  0  0  0  0  0  0
    2.9628    2.1042   -1.3177 C   0  0  0  0  0  0  0  0  0  0  0  0
   -1.1138   -1.6833    1.2402 C   0  0  0  0  0  0  0  0  0  0  0  0
   -0.5602   -1.2473   -1.0883 C   0  0  0  0  0  0  0  0  0  0  0  0
    2.2357    2.3541   -0.1278 O   0  0  0  0  0  0  0  0  0  0  0  0
   -2.3606   -1.0945    1.0565 C   0  0  0  0  0  0  0  0  0  0  0  0
   -0.7158   -2.2960    2.7531 Cl  0  0  0  0  0  0  0  0  0  0  0  0
   -1.8100   -0.6594   -1.2565 C   0  0  0  0  0  0  0  0  0  0  0  0
    1.2976    3.4124   -0.2578 C   0  0  0  0  0  0  0  0  0  0  0  0
   -2.7073   -0.5819   -0.1912 C   0  0  0  0  0  0  0  0  0  0  0  0
   -2.2387   -0.0401   -2.7572 Cl  0  0  0  0  0  0  0  0  0  0  0  0
    0.6031    3.5571    1.0930 C   0  0  0  0  0  0  0  0  0  0  0  0
   -4.2114    0.1327   -0.4129 Cl  0  0  0  0  0  0  0  0  0  0  0  0
   -0.4327    4.6686    1.0412 C   0  0  0  0  0  0  0  0  0  0  0  0
   -1.1326    4.8309    2.3715 C   0  0  0  0  0  0  0  0  0  0  0  0
  1  2  1  0  0  0  0 
  1  3  2  0  0  0  0 
  1  4  1  0  0  0  0 
  2  5  1  0  0  0  0 
  2  6  1  0  0  0  0 
  4  7  1  0  0  0  0 
  6  8  1  0  0  0  0 
  7  9  1  0  0  0  0 
  8 10  1  0  0  0  0 
  8 11  2  0  0  0  0 
  9 12  1  0  0  0  0 
 10 13  2  0  0  0  0 
 10 14  1  0  0  0  0 
 15 11  1  0  0  0  0 
 12 16  1  0  0  0  0 
 13 17  1  0  0  0  0 
 17 15  2  0  0  0  0 
 15 18  1  0  0  0  0 
 16 19  1  0  0  0  0 
 17 20  1  0  0  0  0 
 19 21  1  0  0  0  0 
 21 22  1  0  0  0  0 
M  END
> <Name>
2-Butoxyethyl 2-(2,4,5-trichlorophenoxy)propionate

> <Source>
DougDB3DMolFile

> <Tox>
5.568

> <CAS>
19398-13-1

$$$$

  CDK

 14 14  0  0  0  0  0  0  0  0999 V2000
    0.0006    2.1119   -0.1066 C   0  0  0  0  0  0  0  0  0  0  0  0
   -1.2085    1.4061   -0.0699 C   0  0  0  0  0  0  0  0  0  0  0  0
    1.2091    1.4055   -0.0675 C   0  0  0  0  0  0  0  0  0  0  0  0
    0.0010    3.5232   -0.2995 N   0  0  0  0  0  0  0  0  0  0  0  0
   -1.2011    0.0143    0.0120 C   0  0  0  0  0  0  0  0  0  0  0  0
    1.2011    0.0137    0.0127 C   0  0  0  0  0  0  0  0  0  0  0  0
   -0.0002   -0.7118    0.0705 C   0  0  0  0  0  0  0  0  0  0  0  0
   -2.5469   -0.6698    0.0303 N   0  0  0  0  0  0  0  0  0  0  0  0
    2.5467   -0.6709    0.0301 N   0  0  0  0  0  0  0  0  0  0  0  0
   -0.0013   -2.1956    0.1908 C   0  0  0  0  0  0  0  0  0  0  0  0
   -3.3152   -0.4062    0.9312 O   0  0  0  0  0  0  0  0  0  0  0  0
   -2.8319   -1.4411   -0.8596 O   0  0  0  0  0  0  0  0  0  0  0  0
    3.3164   -0.4067    0.9296 O   0  0  0  0  0  0  0  0  0  0  0  0
    2.8303   -1.4430   -0.8595 O   0  0  0  0  0  0  0  0  0  0  0  0
  1  2  1  0  0  0  0 
  1  3  2  0  0  0  0 
  1  4  1  0  0  0  0 
  2  5  2  0  0  0  0 
  6  3  1  0  0  0  0 
  5  7  1  0  0  0  0 
  5  8  1  0  0  0  0 
  7  6  2  0  0  0  0 
  6  9  1  0  0  0  0 
  7 10  1  0  0  0  0 
  8 11  2  0  0  0  0 
  8 12  1  0  0  0  0 
  9 13  2  0  0  0  0 
  9 14  1  0  0  0  0 
M  CHG  1   8   1
M  CHG  1   9   1
M  CHG  1  12  -1
M  CHG  1  14  -1
M  END
> <Name>
Benzenamine, 4-methyl-3,5-dinitro- (9CI)

> <Source>
DougDB3DMolFile

> <Tox>
4.456

> <CAS>
19406-51-0

$$$$

  CDK

 10  9  0  0  0  0  0  0  0  0999 V2000
    0.0000   -3.4555    0.0000 C   0  0  0  0  0  0  0  0  0  0  0  0
    0.6650   -2.3037    0.0000 C   0  0  0  0  0  0  0  0  0  0  0  0
    1.3300   -1.1518    0.0000 C   0  0  0  0  0  0  0  0  0  0  0  0
    2.4818   -1.8168    0.0000 C   0  0  0  0  0  0  0  0  0  0  0  0
    0.1781   -0.4869    0.0000 C   0  0  0  0  0  0  0  0  0  0  0  0
    1.9949   -0.0000    0.0000 O   0  0  0  0  0  0  0  0  0  0  0  0
    3.6336   -1.1518    0.0000 C   0  0  0  0  0  0  0  0  0  0  0  0
    4.7855   -1.8168    0.0000 C   0  0  0  0  0  0  0  0  0  0  0  0
    5.9373   -1.1518    0.0000 C   0  0  0  0  0  0  0  0  0  0  0  0
    4.7855   -3.1468    0.0000 C   0  0  0  0  0  0  0  0  0  0  0  0
  1  2  3  0  0  0  0 
  2  3  1  0  0  0  0 
  3  4  1  0  0  0  0 
  3  5  1  0  0  0  0 
  3  6  1  0  0  0  0 
  4  7  1  0  0  0  0 
  7  8  1  0  0  0  0 
  8  9  1  0  0  0  0 
  8 10  1  0  0  0  0 
M  END
> <Name>
1-Heptyn-3-ol, 3,6-dimethyl-

> <Source>
DSSTox2DMolFile

> <Tox>
3.457

> <CAS>
19549-98-5

$$$$

  CDK

 24 23  0  0  0  0  0  0  0  0999 V2000
    5.5796   -0.1500    0.6057 O   0  0  0  0  0  0  0  0  0  0  0  0
    4.4973    0.7674    0.6933 C   0  0  0  0  0  0  0  0  0  0  0  0
    3.4943    0.4458   -0.4031 C   0  0  0  0  0  0  0  0  0  0  0  0
    2.3510    1.3565   -0.3407 N   0  0  0  0  0  0  0  0  0  0  0  0
    1.3701    1.0177   -1.3691 C   0  0  0  0  0  0  0  0  0  0  0  0
    2.7941    2.7425   -0.4918 C   0  0  0  0  0  0  0  0  0  0  0  0
    0.9024   -0.4019   -1.2314 C   0  0  0  0  0  0  0  0  0  0  0  0
    1.6447    3.6999   -0.3691 C   0  0  0  0  0  0  0  0  0  0  0  0
    0.4615   -1.2284   -2.2005 C   0  0  0  0  0  0  0  0  0  0  0  0
    1.2140    4.6003   -1.2749 C   0  0  0  0  0  0  0  0  0  0  0  0
    0.0357   -2.6660   -1.9869 C   0  0  0  0  0  0  0  0  0  0  0  0
    0.3980   -0.7482   -3.6283 C   0  0  0  0  0  0  0  0  0  0  0  0
    0.0199    5.5133   -1.0901 C   0  0  0  0  0  0  0  0  0  0  0  0
    1.9169    4.7279   -2.6026 C   0  0  0  0  0  0  0  0  0  0  0  0
    0.9333   -3.6890   -2.6957 C   0  0  0  0  0  0  0  0  0  0  0  0
   -1.1265    5.2391   -2.0726 C   0  0  0  0  0  0  0  0  0  0  0  0
    2.3856   -3.5310   -2.3389 C   0  0  0  0  0  0  0  0  0  0  0  0
   -1.5761    3.8043   -2.0524 C   0  0  0  0  0  0  0  0  0  0  0  0
    3.0666   -4.1279   -1.3426 C   0  0  0  0  0  0  0  0  0  0  0  0
   -2.5402    3.2457   -1.2966 C   0  0  0  0  0  0  0  0  0  0  0  0
    4.5240   -3.9233   -1.0413 C   0  0  0  0  0  0  0  0  0  0  0  0
    2.3757   -5.1037   -0.4272 C   0  0  0  0  0  0  0  0  0  0  0  0
   -2.9397    1.7980   -1.3276 C   0  0  0  0  0  0  0  0  0  0  0  0
   -3.3327    4.0867   -0.3312 C   0  0  0  0  0  0  0  0  0  0  0  0
  1  2  1  0  0  0  0 
  3  2  1  0  0  0  0 
  4  3  1  0  0  0  0 
  4  5  1  0  0  0  0 
  4  6  1  0  0  0  0 
  5  7  1  0  0  0  0 
  6  8  1  0  0  0  0 
  7  9  2  0  0  0  0 
  8 10  2  0  0  0  0 
  9 11  1  0  0  0  0 
  9 12  1  0  0  0  0 
 10 13  1  0  0  0  0 
 10 14  1  0  0  0  0 
 11 15  1  0  0  0  0 
 13 16  1  0  0  0  0 
 15 17  1  0  0  0  0 
 16 18  1  0  0  0  0 
 17 19  2  0  0  0  0 
 18 20  2  0  0  0  0 
 19 21  1  0  0  0  0 
 19 22  1  0  0  0  0 
 20 23  1  0  0  0  0 
 20 24  1  0  0  0  0 
M  END
> <Name>
Ethanol, 2-(bis(3,7-dimethyl-2,6-octadienyl)amino)-, (E,E)-

> <Source>
Chemidplus3DMolFile

> <Tox>
6.408

> <CAS>
19902-04-6

$$$$

  CDK

  8  8  0  0  0  0  0  0  0  0999 V2000
    0.0000   -2.8932    0.0000 C   0  0  0  0  0  0  0  0  0  0  0  0
    1.0772   -2.1098    0.0000 C   0  0  0  0  0  0  0  0  0  0  0  0
    1.0772   -0.7834    0.0000 C   0  0  0  0  0  0  0  0  0  0  0  0
    2.3413   -2.5238    0.0000 N   0  0  0  0  0  0  0  0  0  0  0  0
    0.0000   -0.0000    0.0000 C   0  0  0  0  0  0  0  0  0  0  0  0
    2.3413   -0.3694    0.0000 O   0  0  0  0  0  0  0  0  0  0  0  0
    3.1202   -1.4466    0.0000 C   0  0  0  0  0  0  0  0  0  0  0  0
    4.4511   -1.4466    0.0000 C   0  0  0  0  0  0  0  0  0  0  0  0
  1  2  1  0  0  0  0 
  2  3  2  0  0  0  0 
  2  4  1  0  0  0  0 
  3  5  1  0  0  0  0 
  3  6  1  0  0  0  0 
  7  4  2  0  0  0  0 
  6  7  1  0  0  0  0 
  7  8  1  0  0  0  0 
M  END
> <Name>
2,4,5-Trimethyloxazole

> <Source>
DSSTox2DMolFile

> <Tox>
2.395

> <CAS>
20662-84-4

$$$$

  CDK

  9  8  0  0  0  0  0  0  0  0999 V2000
    0.0000   -1.9937    0.0000 C   0  0  0  0  0  0  0  0  0  0  0  0
    1.1524   -1.3311    0.0000 C   0  0  0  0  0  0  0  0  0  0  0  0
    1.1524   -0.0000    0.0000 O   0  0  0  0  0  0  0  0  0  0  0  0
    2.3049   -1.9937    0.0000 C   0  0  0  0  0  0  0  0  0  0  0  0
    2.3049   -3.3248    0.0000 C   0  0  0  0  0  0  0  0  0  0  0  0
    3.4573   -1.3311    0.0000 C   0  0  0  0  0  0  0  0  0  0  0  0
    4.6097   -1.9937    0.0000 N   0  0  0  0  0  0  0  0  0  0  0  0
    5.7622   -1.3311    0.0000 C   0  0  0  0  0  0  0  0  0  0  0  0
    4.6097   -3.3248    0.0000 C   0  0  0  0  0  0  0  0  0  0  0  0
  1  2  1  0  0  0  0 
  2  3  2  0  0  0  0 
  2  4  1  0  0  0  0 
  4  5  1  0  0  0  0 
  4  6  1  0  0  0  0 
  6  7  1  0  0  0  0 
  7  8  1  0  0  0  0 
  7  9  1  0  0  0  0 
M  END
> <Name>
2-Butanone, 4-(dimethylamino)-3-methyl-

> <Source>
DSSTox2DMolFile

> <Tox>
4.182

> <CAS>
22104-62-7

$$$$

  CDK

 24 25  0  0  0  0  0  0  0  0999 V2000
    1.8465    1.7488    0.1033 C   0  0  0  0  0  0  0  0  0  0  0  0
    0.9051    0.7746    0.8216 C   0  0  0  0  0  0  0  0  0  0  0  0
    2.2226    1.7341   -1.0498 O   0  0  0  0  0  0  0  0  0  0  0  0
    2.2475    2.7681    0.9235 O   0  0  0  0  0  0  0  0  0  0  0  0
    0.3870   -0.2638   -0.1203 N   0  0  0  0  0  0  0  0  0  0  0  0
    1.5378    0.2119    2.0875 C   0  0  0  0  0  0  0  0  0  0  0  0
    3.1006    3.7901    0.4219 C   0  0  0  0  0  0  0  0  0  0  0  0
   -1.0646   -0.1914   -0.3093 C   0  0  0  0  0  0  0  0  0  0  0  0
    1.0152   -1.5352   -0.3661 C   0  0  0  0  0  0  0  0  0  0  0  0
    2.3409    4.8691   -0.3253 C   0  0  0  0  0  0  0  0  0  0  0  0
   -1.9412   -0.3894    0.7617 C   0  0  0  0  0  0  0  0  0  0  0  0
   -1.5551    0.0955   -1.5880 C   0  0  0  0  0  0  0  0  0  0  0  0
    2.4938   -1.7026   -0.2488 C   0  0  0  0  0  0  0  0  0  0  0  0
    0.2955   -2.4464   -0.7394 O   0  0  0  0  0  0  0  0  0  0  0  0
   -3.3119   -0.2897    0.5433 C   0  0  0  0  0  0  0  0  0  0  0  0
   -2.9266    0.1882   -1.7946 C   0  0  0  0  0  0  0  0  0  0  0  0
    3.3369   -1.1844   -1.2305 C   0  0  0  0  0  0  0  0  0  0  0  0
    3.0168   -2.4822    0.7853 C   0  0  0  0  0  0  0  0  0  0  0  0
   -3.8046   -0.0016   -0.7304 C   0  0  0  0  0  0  0  0  0  0  0  0
   -4.3793   -0.5228    1.8204 Cl  0  0  0  0  0  0  0  0  0  0  0  0
    4.7057   -1.4264   -1.1602 C   0  0  0  0  0  0  0  0  0  0  0  0
    4.3851   -2.7173    0.8488 C   0  0  0  0  0  0  0  0  0  0  0  0
   -5.4615    0.1129   -0.9786 Cl  0  0  0  0  0  0  0  0  0  0  0  0
    5.2302   -2.1881   -0.1223 C   0  0  0  0  0  0  0  0  0  0  0  0
  1  2  1  0  0  0  0 
  1  3  2  0  0  0  0 
  1  4  1  0  0  0  0 
  5  2  1  0  0  0  0 
  2  6  1  0  0  0  0 
  4  7  1  0  0  0  0 
  5  8  1  0  0  0  0 
  5  9  1  0  0  0  0 
  7 10  1  0  0  0  0 
  8 11  1  0  0  0  0 
  8 12  2  0  0  0  0 
  9 13  1  0  0  0  0 
  9 14  2  0  0  0  0 
 11 15  2  0  0  0  0 
 16 12  1  0  0  0  0 
 13 17  1  0  0  0  0 
 13 18  2  0  0  0  0 
 15 19  1  0  0  0  0 
 15 20  1  0  0  0  0 
 19 16  2  0  0  0  0 
 17 21  2  0  0  0  0 
 22 18  1  0  0  0  0 
 19 23  1  0  0  0  0 
 21 24  1  0  0  0  0 
 24 22  2  0  0  0  0 
M  END
> <Name>
Propionic acid, 2-(N-benzoyl-N-(3,4-dichlorophenyl))amino-, ethyl ester, (+-)-

> <Source>
DougDB3DMolFile

> <Tox>
5.814

> <CAS>
22212-55-1

$$$$

  CDK

 27 30  0  0  0  0  0  0  0  0999 V2000
   -2.4251    0.6739    0.8005 C   0  0  0  0  0  0  0  0  0  0  0  0
   -2.4401    1.6640   -0.3477 C   0  0  0  0  0  0  0  0  0  0  0  0
   -3.7434    1.1581    0.2377 C   0  0  0  0  0  0  0  0  0  0  0  0
   -1.9219   -0.7240    0.6322 C   0  0  0  0  0  0  0  0  0  0  0  0
   -2.0240    3.0771   -0.0397 C   0  0  0  0  0  0  0  0  0  0  0  0
   -2.0158    1.2261   -1.7223 C   0  0  0  0  0  0  0  0  0  0  0  0
   -4.6187    0.2727   -0.5452 C   0  0  0  0  0  0  0  0  0  0  0  0
   -2.5530   -1.7508    0.5005 O   0  0  0  0  0  0  0  0  0  0  0  0
   -0.5943   -1.0460    0.6562 O   0  0  0  0  0  0  0  0  0  0  0  0
   -5.8738   -0.0274   -0.1976 C   0  0  0  0  0  0  0  0  0  0  0  0
    0.3795   -0.0233    0.8546 C   0  0  0  0  0  0  0  0  0  0  0  0
   -6.7489   -0.9372   -1.0002 C   0  0  0  0  0  0  0  0  0  0  0  0
   -6.6068    0.4677    1.0064 C   0  0  0  0  0  0  0  0  0  0  0  0
    1.5935   -0.3941    0.0890 C   0  0  0  0  0  0  0  0  0  0  0  0
   -8.1435   -0.8404   -0.3847 C   0  0  0  0  0  0  0  0  0  0  0  0
   -7.9622   -0.2391    1.0071 C   0  0  0  0  0  0  0  0  0  0  0  0
    1.7906   -0.3124   -1.2707 C   0  0  0  0  0  0  0  0  0  0  0  0
    2.8147   -0.9177    0.6483 C   0  0  0  0  0  0  0  0  0  0  0  0
    3.0510   -0.7445   -1.5982 O   0  0  0  0  0  0  0  0  0  0  0  0
    3.6704   -1.1145   -0.4101 C   0  0  0  0  0  0  0  0  0  0  0  0
    5.0592   -1.6307   -0.4834 C   0  0  0  0  0  0  0  0  0  0  0  0
    6.0512   -0.5824   -0.0830 C   0  0  0  0  0  0  0  0  0  0  0  0
    6.6899    0.1894   -1.0541 C   0  0  0  0  0  0  0  0  0  0  0  0
    6.3484   -0.3788    1.2655 C   0  0  0  0  0  0  0  0  0  0  0  0
    7.6173    1.1548   -0.6780 C   0  0  0  0  0  0  0  0  0  0  0  0
    7.2762    0.5871    1.6372 C   0  0  0  0  0  0  0  0  0  0  0  0
    7.9118    1.3545    0.6664 C   0  0  0  0  0  0  0  0  0  0  0  0
  1  2  1  0  0  0  0 
  1  3  1  0  0  0  0 
  1  4  1  0  0  0  0 
  2  3  1  0  0  0  0 
  2  5  1  0  0  0  0 
  2  6  1  0  0  0  0 
  3  7  1  0  0  0  0 
  4  8  2  0  0  0  0 
  4  9  1  0  0  0  0 
  7 10  2  0  0  0  0 
  9 11  1  0  0  0  0 
 10 12  1  0  0  0  0 
 10 13  1  0  0  0  0 
 11 14  1  0  0  0  0 
 12 15  1  0  0  0  0 
 16 13  1  0  0  0  0 
 17 14  2  0  0  0  0 
 14 18  1  0  0  0  0 
 15 16  1  0  0  0  0 
 19 17  1  0  0  0  0 
 18 20  2  0  0  0  0 
 19 20  1  0  0  0  0 
 20 21  1  0  0  0  0 
 21 22  1  0  0  0  0 
 22 23  1  0  0  0  0 
 22 24  2  0  0  0  0 
 23 25  2  0  0  0  0 
 26 24  1  0  0  0  0 
 25 27  1  0  0  0  0 
 27 26  2  0  0  0  0 
M  END
> <Name>
Cyclopropanecarboxylic acid, 3-(cyclopentylidenemethyl)-2,2-dimethyl-, (5-(phenylmethyl)-3-furanyl)methyl ester, (1R-trans)-

> <Source>
DougDB3DMolFile

> <Tox>
8.571

> <CAS>
22431-62-5

$$$$

  CDK

 10 10  0  0  0  0  0  0  0  0999 V2000
    1.9968   -3.4536    0.0000 C   0  0  0  0  0  0  0  0  0  0  0  0
    0.6656   -3.4536    0.0000 C   0  0  0  0  0  0  0  0  0  0  0  0
    2.6577   -2.3040    0.0000 C   0  0  0  0  0  0  0  0  0  0  0  0
    0.0000   -2.3040    0.0000 C   0  0  0  0  0  0  0  0  0  0  0  0
    1.9968   -1.1497    0.0000 C   0  0  0  0  0  0  0  0  0  0  0  0
    3.9889   -2.3040    0.0000 C   0  0  0  0  0  0  0  0  0  0  0  0
    0.6656   -1.1497    0.0000 C   0  0  0  0  0  0  0  0  0  0  0  0
    4.6545   -1.1497    0.0000 O   0  0  0  0  0  0  0  0  0  0  0  0
    4.6545   -3.4536    0.0000 N   0  0  0  0  0  0  0  0  0  0  0  0
    0.0000   -0.0000    0.0000 Br  0  0  0  0  0  0  0  0  0  0  0  0
  1  2  2  0  0  0  0 
  1  3  1  0  0  0  0 
  2  4  1  0  0  0  0 
  5  3  2  0  0  0  0 
  3  6  1  0  0  0  0 
  4  7  2  0  0  0  0 
  7  5  1  0  0  0  0 
  6  8  2  0  0  0  0 
  6  9  1  0  0  0  0 
  7 10  1  0  0  0  0 
M  END
> <Name>
Benzamide, 3-bromo-

> <Source>
DSSTox2DMolFile

> <Tox>
3.325

> <CAS>
22726-00-7

$$$$

  CDK

 15 16  0  0  0  0  0  0  0  0999 V2000
   -0.3129    1.9286    0.0904 N   0  0  0  0  0  0  0  0  0  0  0  0
   -0.9322    0.7011    0.2280 C   0  0  0  0  0  0  0  0  0  0  0  0
    1.0417    1.9268   -0.0105 C   0  0  0  0  0  0  0  0  0  0  0  0
   -0.2433   -0.4865    0.2441 N   0  0  0  0  0  0  0  0  0  0  0  0
   -2.3131    0.7243    0.4407 N   0  0  0  0  0  0  0  0  0  0  0  0
    1.7961    0.7984    0.0085 N   0  0  0  0  0  0  0  0  0  0  0  0
    1.8284    3.4078   -0.1816 Cl  0  0  0  0  0  0  0  0  0  0  0  0
    1.1252   -0.4028    0.1487 C   0  0  0  0  0  0  0  0  0  0  0  0
   -3.1202   -0.4751    0.2249 C   0  0  0  0  0  0  0  0  0  0  0  0
    1.9165   -1.5426    0.2810 N   0  0  0  0  0  0  0  0  0  0  0  0
   -4.6135   -0.3666    0.3923 C   0  0  0  0  0  0  0  0  0  0  0  0
   -4.0326   -0.5761   -0.9733 C   0  0  0  0  0  0  0  0  0  0  0  0
    1.3647   -2.9096    0.0557 C   0  0  0  0  0  0  0  0  0  0  0  0
    2.1829   -3.9061    0.8702 C   0  0  0  0  0  0  0  0  0  0  0  0
    1.3859   -3.2923   -1.4208 C   0  0  0  0  0  0  0  0  0  0  0  0
  1  2  1  0  0  0  0 
  1  3  2  0  0  0  0 
  2  4  2  0  0  0  0 
  2  5  1  0  0  0  0 
  6  3  1  0  0  0  0 
  3  7  1  0  0  0  0 
  4  8  1  0  0  0  0 
  5  9  1  0  0  0  0 
  8  6  2  0  0  0  0 
  8 10  1  0  0  0  0 
  9 11  1  0  0  0  0 
  9 12  1  0  0  0  0 
 10 13  1  0  0  0  0 
 11 12  1  0  0  0  0 
 13 14  1  0  0  0  0 
 13 15  1  0  0  0  0 
M  END
> <Name>
6-Chloro-N-cyclopropyl-N'-isopropyl-1,3,5-triazine-2,4-diamine

> <Source>
DougDB3DMolFile

> <Tox>
4.800

> <CAS>
22936-86-3

$$$$

  CDK

 13 12  0  0  0  0  0  0  0  0999 V2000
    1.4558    0.0089   -0.9441 C   0  0  0  0  0  0  0  0  0  0  0  0
    0.6673   -1.2757   -0.7075 C   0  0  0  0  0  0  0  0  0  0  0  0
    1.4358    0.6522   -1.9774 O   0  0  0  0  0  0  0  0  0  0  0  0
    2.2364    0.4192    0.0862 O   0  0  0  0  0  0  0  0  0  0  0  0
   -0.8264   -1.0281   -0.9201 C   0  0  0  0  0  0  0  0  0  0  0  0
    1.0297   -2.2832    0.7805 S   0  0  0  0  0  0  0  0  0  0  0  0
    2.9765    1.6358   -0.0628 C   0  0  0  0  0  0  0  0  0  0  0  0
   -1.4833   -0.0384    0.0185 C   0  0  0  0  0  0  0  0  0  0  0  0
    3.7148    1.8443    1.2449 C   0  0  0  0  0  0  0  0  0  0  0  0
   -0.9830    0.6299    0.9021 O   0  0  0  0  0  0  0  0  0  0  0  0
   -2.8212    0.0667   -0.2221 O   0  0  0  0  0  0  0  0  0  0  0  0
   -3.5897    0.9706    0.5763 C   0  0  0  0  0  0  0  0  0  0  0  0
   -5.0183    0.8718    0.0777 C   0  0  0  0  0  0  0  0  0  0  0  0
  1  2  1  0  0  0  0 
  1  3  2  0  0  0  0 
  1  4  1  0  0  0  0 
  2  5  1  0  0  0  0 
  2  6  1  0  0  0  0 
  4  7  1  0  0  0  0 
  5  8  1  0  0  0  0 
  7  9  1  0  0  0  0 
  8 10  2  0  0  0  0 
  8 11  1  0  0  0  0 
 11 12  1  0  0  0  0 
 12 13  1  0  0  0  0 
M  END
> <Name>
Butanedioic acid, mercapto-, diethyl ester

> <Source>
DougDB3DMolFile

> <Tox>
3.770

> <CAS>
23060-14-2

$$$$

  CDK

 14 13  0  0  0  0  0  0  0  0999 V2000
    5.3253   -4.6067    0.0000 O   0  0  0  0  0  0  0  0  0  0  0  0
    5.9879   -3.4570    0.0000 C   0  0  0  0  0  0  0  0  0  0  0  0
    5.3253   -2.2994    0.0000 C   0  0  0  0  0  0  0  0  0  0  0  0
    7.3213   -3.4570    0.0000 N   0  0  0  0  0  0  0  0  0  0  0  0
    3.9920   -2.2994    0.0000 N   0  0  0  0  0  0  0  0  0  0  0  0
    5.9879   -1.1497    0.0000 S   0  0  0  0  0  0  0  0  0  0  0  0
    7.9839   -2.2994    0.0000 C   0  0  0  0  0  0  0  0  0  0  0  0
    7.9839   -4.6067    0.0000 C   0  0  0  0  0  0  0  0  0  0  0  0
    3.3293   -1.1497    0.0000 O   0  0  0  0  0  0  0  0  0  0  0  0
    5.3253   -0.0000    0.0000 C   0  0  0  0  0  0  0  0  0  0  0  0
    1.9960   -1.1497    0.0000 C   0  0  0  0  0  0  0  0  0  0  0  0
    1.3333   -0.0000    0.0000 O   0  0  0  0  0  0  0  0  0  0  0  0
    1.3333   -2.2994    0.0000 N   0  0  0  0  0  0  0  0  0  0  0  0
    0.0000   -2.2994    0.0000 C   0  0  0  0  0  0  0  0  0  0  0  0
  1  2  2  0  0  0  0 
  2  3  1  0  0  0  0 
  2  4  1  0  0  0  0 
  3  5  2  0  0  0  0 
  3  6  1  0  0  0  0 
  4  7  1  0  0  0  0 
  4  8  1  0  0  0  0 
  5  9  1  0  0  0  0 
  6 10  1  0  0  0  0 
  9 11  1  0  0  0  0 
 11 12  2  0  0  0  0 
 11 13  1  0  0  0  0 
 13 14  1  0  0  0  0 
M  END
> <Name>
Oxamimidic acid, N',N'-dimethyl-N-((methylcarbamoyl)oxy)-1-methylthio-

> <Source>
DSSTox2DMolFile

> <Tox>
4.512

> <CAS>
23135-22-0

$$$$

  CDK

 13 13  0  0  0  0  0  0  0  0999 V2000
    3.4548   -3.9869    0.0000 N   0  0  0  0  0  0  0  0  0  0  0  0
    3.4548   -2.6602    0.0000 C   0  0  0  0  0  0  0  0  0  0  0  0
    2.3009   -1.9900    0.0000 C   0  0  0  0  0  0  0  0  0  0  0  0
    4.6088   -1.9900    0.0000 C   0  0  0  0  0  0  0  0  0  0  0  0
    1.1539   -2.6602    0.0000 C   0  0  0  0  0  0  0  0  0  0  0  0
    2.3009   -0.6633    0.0000 C   0  0  0  0  0  0  0  0  0  0  0  0
    4.6088   -0.6633    0.0000 C   0  0  0  0  0  0  0  0  0  0  0  0
    5.7558   -2.6602    0.0000 C   0  0  0  0  0  0  0  0  0  0  0  0
    0.0000   -1.9900    0.0000 C   0  0  0  0  0  0  0  0  0  0  0  0
    1.1539   -3.9869    0.0000 C   0  0  0  0  0  0  0  0  0  0  0  0
    3.4548   -0.0000    0.0000 C   0  0  0  0  0  0  0  0  0  0  0  0
    6.9097   -1.9900    0.0000 C   0  0  0  0  0  0  0  0  0  0  0  0
    5.7558   -3.9869    0.0000 C   0  0  0  0  0  0  0  0  0  0  0  0
  1  2  1  0  0  0  0 
  2  3  2  0  0  0  0 
  2  4  1  0  0  0  0 
  3  5  1  0  0  0  0 
  3  6  1  0  0  0  0 
  7  4  2  0  0  0  0 
  4  8  1  0  0  0  0 
  5  9  1  0  0  0  0 
  5 10  1  0  0  0  0 
  6 11  2  0  0  0  0 
 11  7  1  0  0  0  0 
  8 12  1  0  0  0  0 
  8 13  1  0  0  0  0 
M  END
> <Name>
Benzenamine, 2,6-bis(1-methylethyl)-

> <Source>
DSSTox2DMolFile

> <Tox>
4.096

> <CAS>
24544-04-5

$$$$

  CDK

 22 23  0  0  0  0  0  0  0  0999 V2000
   -0.3712   -1.7045   -0.3863 C   0  0  0  0  0  0  0  0  0  0  0  0
   -1.7793   -1.6880   -0.6968 N   0  0  0  0  0  0  0  0  0  0  0  0
    0.4393   -2.4714   -0.8705 O   0  0  0  0  0  0  0  0  0  0  0  0
   -0.0287   -0.6867    0.4628 O   0  0  0  0  0  0  0  0  0  0  0  0
   -2.9869   -1.3723    0.5482 S   0  0  0  0  0  0  0  0  0  0  0  0
   -2.2142   -2.6436   -1.7465 C   0  0  0  0  0  0  0  0  0  0  0  0
    1.3264   -0.5522    0.7848 C   0  0  0  0  0  0  0  0  0  0  0  0
   -3.4823    0.2904    0.2012 C   0  0  0  0  0  0  0  0  0  0  0  0
    2.1044    0.3415    0.0461 C   0  0  0  0  0  0  0  0  0  0  0  0
    1.8281   -1.2097    1.9108 C   0  0  0  0  0  0  0  0  0  0  0  0
   -3.9124    0.7023   -1.0611 C   0  0  0  0  0  0  0  0  0  0  0  0
   -3.5058    1.1936    1.2664 C   0  0  0  0  0  0  0  0  0  0  0  0
    3.4188    0.5868    0.4474 C   0  0  0  0  0  0  0  0  0  0  0  0
    3.1387   -0.9540    2.2964 C   0  0  0  0  0  0  0  0  0  0  0  0
   -4.3611    2.0037   -1.2547 C   0  0  0  0  0  0  0  0  0  0  0  0
   -3.9721    2.4887    1.0719 C   0  0  0  0  0  0  0  0  0  0  0  0
    3.9273   -0.0652    1.5734 C   0  0  0  0  0  0  0  0  0  0  0  0
    4.2938    1.5484   -0.3116 C   0  0  0  0  0  0  0  0  0  0  0  0
   -4.3963    2.8965   -0.1886 C   0  0  0  0  0  0  0  0  0  0  0  0
    4.5101    1.0942   -1.7579 C   0  0  0  0  0  0  0  0  0  0  0  0
    3.6980    2.9487   -0.2746 C   0  0  0  0  0  0  0  0  0  0  0  0
    5.3615   -0.1521   -1.8449 C   0  0  0  0  0  0  0  0  0  0  0  0
  1  2  1  0  0  0  0 
  1  3  2  0  0  0  0 
  1  4  1  0  0  0  0 
  2  5  1  0  0  0  0 
  2  6  1  0  0  0  0 
  4  7  1  0  0  0  0 
  5  8  1  0  0  0  0 
  7  9  1  0  0  0  0 
  7 10  2  0  0  0  0 
  8 11  1  0  0  0  0 
  8 12  2  0  0  0  0 
  9 13  2  0  0  0  0 
 14 10  1  0  0  0  0 
 11 15  2  0  0  0  0 
 16 12  1  0  0  0  0 
 13 17  1  0  0  0  0 
 13 18  1  0  0  0  0 
 17 14  2  0  0  0  0 
 15 19  1  0  0  0  0 
 19 16  2  0  0  0  0 
 18 20  1  0  0  0  0 
 18 21  1  0  0  0  0 
 20 22  1  0  0  0  0 
M  END
> <Name>
Carbamic acid, methyl(phenylthio)-, 3-(1-methylpropyl)phenyl ester

> <Source>
DougDB3DMolFile

> <Tox>
6.907

> <CAS>
25474-41-3

$$$$

  CDK

 14 14  0  0  0  0  0  0  0  0999 V2000
   10.6991   -0.0000    0.0000 O   0  0  0  0  0  0  0  0  0  0  0  0
   10.4164   -1.3006    0.0000 C   0  0  0  0  0  0  0  0  0  0  0  0
   11.3099   -2.2846    0.0000 C   0  0  0  0  0  0  0  0  0  0  0  0
    9.2062   -1.8435    0.0000 N   0  0  0  0  0  0  0  0  0  0  0  0
   10.6426   -3.4382    0.0000 C   0  0  0  0  0  0  0  0  0  0  0  0
    9.3420   -3.1668    0.0000 S   0  0  0  0  0  0  0  0  0  0  0  0
    8.0526   -1.1762    0.0000 C   0  0  0  0  0  0  0  0  0  0  0  0
    6.9103   -1.8435    0.0000 C   0  0  0  0  0  0  0  0  0  0  0  0
    5.7567   -1.1762    0.0000 C   0  0  0  0  0  0  0  0  0  0  0  0
    4.6031   -1.8435    0.0000 C   0  0  0  0  0  0  0  0  0  0  0  0
    3.4495   -1.1762    0.0000 C   0  0  0  0  0  0  0  0  0  0  0  0
    2.3072   -1.8435    0.0000 C   0  0  0  0  0  0  0  0  0  0  0  0
    1.1536   -1.1762    0.0000 C   0  0  0  0  0  0  0  0  0  0  0  0
    0.0000   -1.8435    0.0000 C   0  0  0  0  0  0  0  0  0  0  0  0
  1  2  2  0  0  0  0 
  2  3  1  0  0  0  0 
  2  4  1  0  0  0  0 
  3  5  2  0  0  0  0 
  6  4  1  0  0  0  0 
  4  7  1  0  0  0  0 
  5  6  1  0  0  0  0 
  7  8  1  0  0  0  0 
  8  9  1  0  0  0  0 
  9 10  1  0  0  0  0 
 10 11  1  0  0  0  0 
 11 12  1  0  0  0  0 
 12 13  1  0  0  0  0 
 13 14  1  0  0  0  0 
M  END
> <Name>
4-Isothiazolin-3-one, 2-octyl-

> <Source>
DSSTox2DMolFile

> <Tox>
6.183

> <CAS>
26530-20-1

$$$$

  CDK

 19 22  0  0  0  0  0  0  0  0999 V2000
   -1.7781    1.8446    0.2880 O   0  0  0  0  0  0  0  0  0  0  0  0
   -1.4970    1.4682   -1.0721 C   0  0  0  0  0  0  0  0  0  0  0  0
   -2.5278    0.7532   -0.2561 C   0  0  0  0  0  0  0  0  0  0  0  0
   -0.3332    0.5258   -1.3094 C   0  0  0  0  0  0  0  0  0  0  0  0
   -2.0313   -0.6301    0.1432 C   0  0  0  0  0  0  0  0  0  0  0  0
   -4.2180    0.9733   -0.4066 Cl  0  0  0  0  0  0  0  0  0  0  0  0
   -0.7051   -0.8276   -0.6013 C   0  0  0  0  0  0  0  0  0  0  0  0
    1.0618    0.8597   -0.7182 C   0  0  0  0  0  0  0  0  0  0  0  0
   -3.2062   -1.8462   -0.3815 Cl  0  0  0  0  0  0  0  0  0  0  0  0
    0.5423   -1.1077    0.2821 C   0  0  0  0  0  0  0  0  0  0  0  0
    0.9292    1.1281    0.7725 C   0  0  0  0  0  0  0  0  0  0  0  0
    1.6763   -0.5812   -0.6590 C   0  0  0  0  0  0  0  0  0  0  0  0
    1.9510    2.0433   -1.5951 Cl  0  0  0  0  0  0  0  0  0  0  0  0
    0.6103   -0.0493    1.3693 C   0  0  0  0  0  0  0  0  0  0  0  0
    0.6878   -2.7298    0.8346 Cl  0  0  0  0  0  0  0  0  0  0  0  0
    1.1376    2.6017    1.4409 Cl  0  0  0  0  0  0  0  0  0  0  0  0
    1.7653   -1.3946   -2.2030 Cl  0  0  0  0  0  0  0  0  0  0  0  0
    3.2662   -0.6402    0.0509 Cl  0  0  0  0  0  0  0  0  0  0  0  0
    0.3209   -0.3687    2.9475 Cl  0  0  0  0  0  0  0  0  0  0  0  0
  1  2  1  0  0  0  0 
  1  3  1  0  0  0  0 
  2  3  1  0  0  0  0 
  2  4  1  0  0  0  0 
  3  5  1  0  0  0  0 
  3  6  1  0  0  0  0 
  7  4  1  0  0  0  0 
  8  4  1  0  0  0  0 
  5  7  1  0  0  0  0 
  5  9  1  0  0  0  0 
  7 10  1  0  0  0  0 
 11  8  1  0  0  0  0 
  8 12  1  0  0  0  0 
  8 13  1  0  0  0  0 
 10 14  1  0  0  0  0 
 10 12  1  0  0  0  0 
 10 15  1  0  0  0  0 
 14 11  2  0  0  0  0 
 11 16  1  0  0  0  0 
 12 17  1  0  0  0  0 
 12 18  1  0  0  0  0 
 14 19  1  0  0  0  0 
M  END
> <Name>
2,5-Methano-2H-indeno(1,2-b)oxirene, 2,3,4,5,6,6a,7,7-octachloro-1a,1b,5,5a,6,6a-hexahydro-

> <Source>
DougDB3DMolFile

> <Tox>
8.100

> <CAS>
27304-13-8

$$$$

  CDK

 22 23  0  0  0  0  0  0  0  0999 V2000
   -1.9685   -0.1611    0.2765 C   0  0  0  0  0  0  0  0  0  0  0  0
   -2.2358   -1.6530    0.2874 C   0  0  0  0  0  0  0  0  0  0  0  0
   -3.2839   -0.6942   -0.2388 C   0  0  0  0  0  0  0  0  0  0  0  0
   -0.9734    0.4215   -0.6771 C   0  0  0  0  0  0  0  0  0  0  0  0
   -2.4106   -2.3212    1.6230 C   0  0  0  0  0  0  0  0  0  0  0  0
   -1.5345   -2.5422   -0.7040 C   0  0  0  0  0  0  0  0  0  0  0  0
   -4.5235   -0.4335    0.5122 C   0  0  0  0  0  0  0  0  0  0  0  0
   -1.1620    0.8562   -1.7955 O   0  0  0  0  0  0  0  0  0  0  0  0
    0.2827    0.4510   -0.1348 O   0  0  0  0  0  0  0  0  0  0  0  0
   -5.2484    0.6887    0.4073 C   0  0  0  0  0  0  0  0  0  0  0  0
    1.3885    0.8322   -0.9582 C   0  0  0  0  0  0  0  0  0  0  0  0
   -6.5065    0.8581    1.1846 C   0  0  0  0  0  0  0  0  0  0  0  0
   -4.8833    1.8373   -0.4608 C   0  0  0  0  0  0  0  0  0  0  0  0
    2.5121    1.2570   -0.0300 C   0  0  0  0  0  0  0  0  0  0  0  0
    1.9542   -0.3811   -1.7336 C   0  0  0  0  0  0  0  0  0  0  0  0
    3.6153    0.4981   -0.1913 C   0  0  0  0  0  0  0  0  0  0  0  0
    2.3709    2.3986    0.8900 C   0  0  0  0  0  0  0  0  0  0  0  0
    3.3813   -0.5466   -1.2314 C   0  0  0  0  0  0  0  0  0  0  0  0
    4.8982    0.6809    0.5316 C   0  0  0  0  0  0  0  0  0  0  0  0
    4.1740   -1.3731   -1.6272 O   0  0  0  0  0  0  0  0  0  0  0  0
    5.1636   -0.4447    1.4719 C   0  0  0  0  0  0  0  0  0  0  0  0
    5.4334   -0.2598    2.7585 C   0  0  0  0  0  0  0  0  0  0  0  0
  1  2  1  0  0  0  0 
  1  3  1  0  0  0  0 
  1  4  1  0  0  0  0 
  2  3  1  0  0  0  0 
  2  5  1  0  0  0  0 
  2  6  1  0  0  0  0 
  3  7  1  0  0  0  0 
  4  8  2  0  0  0  0 
  4  9  1  0  0  0  0 
  7 10  2  0  0  0  0 
  9 11  1  0  0  0  0 
 10 12  1  0  0  0  0 
 10 13  1  0  0  0  0 
 11 14  1  0  0  0  0 
 11 15  1  0  0  0  0 
 14 16  2  0  0  0  0 
 14 17  1  0  0  0  0 
 18 15  1  0  0  0  0 
 16 18  1  0  0  0  0 
 16 19  1  0  0  0  0 
 18 20  2  0  0  0  0 
 19 21  1  0  0  0  0 
 21 22  2  0  0  0  0 
M  END
> <Name>
Cyclopropanecarboxylic acid, 2,2-dimethyl-3-(2-methyl-1-propenyl)-, 2-methyl-4-oxo-3-(2-propenyl)-2-cyclopenten-1-yl ester, (1R-(1alpha(S*),3beta))-

> <Source>
DougDB3DMolFile

> <Tox>
6.667

> <CAS>
28434-00-6

$$$$

  CDK

 22 22  0  0  0  0  0  0  0  0999 V2000
    1.1788    1.1262    0.0365 C   0  0  0  0  0  0  0  0  0  0  0  0
   -0.2419    1.1056    0.0090 C   0  0  0  0  0  0  0  0  0  0  0  0
    1.8658   -0.1176    0.0635 C   0  0  0  0  0  0  0  0  0  0  0  0
    1.8684    2.3195    0.0308 N   0  0  0  0  0  0  0  0  0  0  0  0
   -0.9595   -0.1006    0.0518 C   0  0  0  0  0  0  0  0  0  0  0  0
   -1.0110    2.4036   -0.0959 N   0  0  0  0  0  0  0  0  0  0  0  0
    1.1508   -1.3015    0.0852 C   0  0  0  0  0  0  0  0  0  0  0  0
    3.3945   -0.1787    0.0649 C   0  0  0  0  0  0  0  0  0  0  0  0
   -0.2497   -1.3144    0.1036 C   0  0  0  0  0  0  0  0  0  0  0  0
   -2.4095    0.0519    0.0014 N   0  0  0  0  0  0  0  0  0  0  0  0
   -1.2267    2.8652   -1.1946 O   0  0  0  0  0  0  0  0  0  0  0  0
   -1.3135    2.9850    0.9239 O   0  0  0  0  0  0  0  0  0  0  0  0
    3.9291   -1.4186    0.0832 F   0  0  0  0  0  0  0  0  0  0  0  0
    3.9650    0.4120   -1.0124 F   0  0  0  0  0  0  0  0  0  0  0  0
    3.9628    0.4406    1.1278 F   0  0  0  0  0  0  0  0  0  0  0  0
   -0.8935   -2.6687    0.1842 N   0  0  0  0  0  0  0  0  0  0  0  0
   -3.1434   -0.6708   -1.0785 C   0  0  0  0  0  0  0  0  0  0  0  0
   -3.0826   -0.0212    1.3408 C   0  0  0  0  0  0  0  0  0  0  0  0
   -0.5772   -3.5104   -0.6296 O   0  0  0  0  0  0  0  0  0  0  0  0
   -1.6868   -2.9025    1.0722 O   0  0  0  0  0  0  0  0  0  0  0  0
   -2.6270   -0.3305   -2.4600 C   0  0  0  0  0  0  0  0  0  0  0  0
   -4.3770    0.7696    1.3147 C   0  0  0  0  0  0  0  0  0  0  0  0
  1  2  1  0  0  0  0 
  1  3  2  0  0  0  0 
  1  4  1  0  0  0  0 
  2  5  2  0  0  0  0 
  2  6  1  0  0  0  0 
  7  3  1  0  0  0  0 
  3  8  1  0  0  0  0 
  5  9  1  0  0  0  0 
  5 10  1  0  0  0  0 
  6 11  2  0  0  0  0 
  6 12  1  0  0  0  0 
  9  7  2  0  0  0  0 
  8 13  1  0  0  0  0 
  8 14  1  0  0  0  0 
  8 15  1  0  0  0  0 
  9 16  1  0  0  0  0 
 10 17  1  0  0  0  0 
 10 18  1  0  0  0  0 
 16 19  2  0  0  0  0 
 16 20  1  0  0  0  0 
 17 21  1  0  0  0  0 
 18 22  1  0  0  0  0 
M  CHG  1   6   1
M  CHG  1  12  -1
M  CHG  1  16   1
M  CHG  1  20  -1
M  END
> <Name>
Toluene-2,4-diamine, N(sup 4),N(sup 4)-diethyl-3,5-dinitro-alpha,alpha,alpha-trifluoro-

> <Source>
DougDB3DMolFile

> <Tox>
5.393

> <CAS>
29091-05-2

$$$$

  CDK

 19 19  0  0  0  0  0  0  0  0999 V2000
    3.4439   -2.0074    0.0000 N   0  0  0  0  0  0  0  0  0  0  0  0
    2.3020   -2.6520    0.0000 C   0  0  0  0  0  0  0  0  0  0  0  0
    4.6041   -2.6520    0.0000 C   0  0  0  0  0  0  0  0  0  0  0  0
    2.3020   -3.9871    0.0000 N   0  0  0  0  0  0  0  0  0  0  0  0
    1.1418   -2.0074    0.0000 N   0  0  0  0  0  0  0  0  0  0  0  0
    5.7459   -2.0074    0.0000 O   0  0  0  0  0  0  0  0  0  0  0  0
    4.6041   -3.9871    0.0000 C   0  0  0  0  0  0  0  0  0  0  0  0
    3.4439   -4.6685    0.0000 C   0  0  0  0  0  0  0  0  0  0  0  0
    1.1418   -0.6814    0.0000 C   0  0  0  0  0  0  0  0  0  0  0  0
    0.0000   -2.6520    0.0000 C   0  0  0  0  0  0  0  0  0  0  0  0
    6.9061   -2.6520    0.0000 P   0  0  0  0  0  0  0  0  0  0  0  0
    3.4439   -5.9945    0.0000 C   0  0  0  0  0  0  0  0  0  0  0  0
    2.3020   -0.0000    0.0000 C   0  0  0  0  0  0  0  0  0  0  0  0
    0.0000   -3.9871    0.0000 C   0  0  0  0  0  0  0  0  0  0  0  0
    6.2339   -3.8214    0.0000 S   0  0  0  0  0  0  0  0  0  0  0  0
    7.5599   -1.5193    0.0000 O   0  0  0  0  0  0  0  0  0  0  0  0
    8.0479   -3.3426    0.0000 O   0  0  0  0  0  0  0  0  0  0  0  0
    8.8951   -1.5193    0.0000 C   0  0  0  0  0  0  0  0  0  0  0  0
    9.2082   -2.6520    0.0000 C   0  0  0  0  0  0  0  0  0  0  0  0
  1  2  2  0  0  0  0 
  1  3  1  0  0  0  0 
  2  4  1  0  0  0  0 
  2  5  1  0  0  0  0 
  3  6  1  0  0  0  0 
  3  7  2  0  0  0  0 
  4  8  2  0  0  0  0 
  5  9  1  0  0  0  0 
  5 10  1  0  0  0  0 
 11  6  1  0  0  0  0 
  7  8  1  0  0  0  0 
  8 12  1  0  0  0  0 
  9 13  1  0  0  0  0 
 10 14  1  0  0  0  0 
 11 15  2  0  0  0  0 
 11 16  1  0  0  0  0 
 11 17  1  0  0  0  0 
 16 18  1  0  0  0  0 
 17 19  1  0  0  0  0 
M  END
> <Name>
Phosphorothioic acid, O-(2-(diethylamino)-6-methyl-4-pyrimidinyl) O,O-dimethyl ester

> <Source>
DSSTox2DMolFile

> <Tox>
5.087

> <CAS>
29232-93-7

$$$$

  CDK

 10  9  0  0  0  0  0  0  0  0999 V2000
    0.9777   -3.0935    0.0000 C   0  0  0  0  0  0  0  0  0  0  0  0
    2.2253   -2.6359    0.0000 C   0  0  0  0  0  0  0  0  0  0  0  0
    3.5198   -2.3309    0.0000 C   0  0  0  0  0  0  0  0  0  0  0  0
    2.6085   -3.9108    0.0000 O   0  0  0  0  0  0  0  0  0  0  0  0
    1.9945   -1.3258    0.0000 C   0  0  0  0  0  0  0  0  0  0  0  0
    1.9163   -0.0000    0.0000 F   0  0  0  0  0  0  0  0  0  0  0  0
    0.6648   -1.3258    0.0000 C   0  0  0  0  0  0  0  0  0  0  0  0
    3.3164   -1.1733    0.0000 F   0  0  0  0  0  0  0  0  0  0  0  0
    0.1017   -0.1212    0.0000 F   0  0  0  0  0  0  0  0  0  0  0  0
    0.0000   -2.4795    0.0000 F   0  0  0  0  0  0  0  0  0  0  0  0
  1  2  1  0  0  0  0 
  2  3  1  0  0  0  0 
  2  4  1  0  0  0  0 
  2  5  1  0  0  0  0 
  5  6  1  0  0  0  0 
  5  7  1  0  0  0  0 
  5  8  1  0  0  0  0 
  7  9  1  0  0  0  0 
  7 10  1  0  0  0  0 
M  END
> <Name>
2-Butanol, 2-methyl-3,3,4,4-tetrafluoro-

> <Source>
DSSTox2DMolFile

> <Tox>
2.439

> <CAS>
29553-26-2

$$$$

  CDK

 23 23  0  0  0  0  0  0  0  0999 V2000
   -3.2118   -1.0165   -0.0438 C   0  0  0  0  0  0  0  0  0  0  0  0
   -3.2631    0.2013    0.8972 C   0  0  0  0  0  0  0  0  0  0  0  0
   -3.4520   -1.0467   -1.2306 O   0  0  0  0  0  0  0  0  0  0  0  0
   -2.8846   -2.1615    0.6277 O   0  0  0  0  0  0  0  0  0  0  0  0
   -4.7106    0.6018    1.1502 C   0  0  0  0  0  0  0  0  0  0  0  0
   -2.6397    1.3248    0.2691 O   0  0  0  0  0  0  0  0  0  0  0  0
   -2.5246   -3.3366   -0.0924 C   0  0  0  0  0  0  0  0  0  0  0  0
   -1.2626    1.3808    0.3274 C   0  0  0  0  0  0  0  0  0  0  0  0
   -1.0178   -3.5720   -0.0144 C   0  0  0  0  0  0  0  0  0  0  0  0
   -0.6533    2.1787   -0.6589 C   0  0  0  0  0  0  0  0  0  0  0  0
   -0.4869    0.7604    1.3119 C   0  0  0  0  0  0  0  0  0  0  0  0
   -0.2198   -2.5494   -0.8055 C   0  0  0  0  0  0  0  0  0  0  0  0
    0.7297    2.3343   -0.6654 C   0  0  0  0  0  0  0  0  0  0  0  0
   -1.5677    2.9496   -1.8374 Cl  0  0  0  0  0  0  0  0  0  0  0  0
    0.8936    0.9311    1.2975 C   0  0  0  0  0  0  0  0  0  0  0  0
    1.2702   -2.8385   -0.7388 C   0  0  0  0  0  0  0  0  0  0  0  0
    1.5019    1.7045    0.3071 C   0  0  0  0  0  0  0  0  0  0  0  0
    1.8347    0.2012    2.4806 Cl  0  0  0  0  0  0  0  0  0  0  0  0
    2.0803   -1.7233   -1.3819 C   0  0  0  0  0  0  0  0  0  0  0  0
    3.1739    1.8721    0.2876 Cl  0  0  0  0  0  0  0  0  0  0  0  0
    3.5798   -1.8980   -1.1338 C   0  0  0  0  0  0  0  0  0  0  0  0
    4.3642   -0.8470   -1.9014 C   0  0  0  0  0  0  0  0  0  0  0  0
    3.8905   -1.8037    0.3518 C   0  0  0  0  0  0  0  0  0  0  0  0
  1  2  1  0  0  0  0 
  1  3  2  0  0  0  0 
  1  4  1  0  0  0  0 
  2  5  1  0  0  0  0 
  2  6  1  0  0  0  0 
  4  7  1  0  0  0  0 
  6  8  1  0  0  0  0 
  7  9  1  0  0  0  0 
  8 10  1  0  0  0  0 
  8 11  2  0  0  0  0 
  9 12  1  0  0  0  0 
 10 13  2  0  0  0  0 
 10 14  1  0  0  0  0 
 15 11  1  0  0  0  0 
 12 16  1  0  0  0  0 
 13 17  1  0  0  0  0 
 17 15  2  0  0  0  0 
 15 18  1  0  0  0  0 
 16 19  1  0  0  0  0 
 17 20  1  0  0  0  0 
 19 21  1  0  0  0  0 
 21 22  1  0  0  0  0 
 21 23  1  0  0  0  0 
M  END
> <Name>
Propanoic acid, 2-(2,4,5-trichlorophenoxy)-, isooctyl ester (9CI)

> <Source>
DougDB3DMolFile

> <Tox>
4.239

> <CAS>
32534-95-5

$$$$

  CDK

 16 16  0  0  0  0  0  0  0  0999 V2000
   -0.0530    1.6613    0.1094 N   0  0  0  0  0  0  0  0  0  0  0  0
   -0.7566    0.4683    0.0948 C   0  0  0  0  0  0  0  0  0  0  0  0
    1.2997    1.5541   -0.0474 C   0  0  0  0  0  0  0  0  0  0  0  0
   -0.1520   -0.7491   -0.0950 N   0  0  0  0  0  0  0  0  0  0  0  0
   -2.1167    0.5823    0.3809 N   0  0  0  0  0  0  0  0  0  0  0  0
    1.9865    0.3892   -0.2346 N   0  0  0  0  0  0  0  0  0  0  0  0
    2.1315    2.6165   -0.0381 O   0  0  0  0  0  0  0  0  0  0  0  0
    1.2153   -0.7508   -0.2683 C   0  0  0  0  0  0  0  0  0  0  0  0
   -3.1558   -0.4535    0.0416 C   0  0  0  0  0  0  0  0  0  0  0  0
    1.5657    3.8995    0.1486 C   0  0  0  0  0  0  0  0  0  0  0  0
    1.7956   -1.9849   -0.5857 N   0  0  0  0  0  0  0  0  0  0  0  0
   -4.5300    0.1642    0.3480 C   0  0  0  0  0  0  0  0  0  0  0  0
   -3.1162   -0.8442   -1.4386 C   0  0  0  0  0  0  0  0  0  0  0  0
   -2.9789   -1.6976    0.9157 C   0  0  0  0  0  0  0  0  0  0  0  0
    3.2451   -2.2204   -0.4038 C   0  0  0  0  0  0  0  0  0  0  0  0
    3.6104   -2.7042    0.9869 C   0  0  0  0  0  0  0  0  0  0  0  0
  1  2  1  0  0  0  0 
  1  3  2  0  0  0  0 
  2  4  2  0  0  0  0 
  2  5  1  0  0  0  0 
  6  3  1  0  0  0  0 
  3  7  1  0  0  0  0 
  4  8  1  0  0  0  0 
  5  9  1  0  0  0  0 
  8  6  2  0  0  0  0 
  7 10  1  0  0  0  0 
  8 11  1  0  0  0  0 
  9 12  1  0  0  0  0 
  9 13  1  0  0  0  0 
  9 14  1  0  0  0  0 
 11 15  1  0  0  0  0 
 15 16  1  0  0  0  0 
M  END
> <Name>
1,3,5-Triazine-2,4-diamine, N-(1,1-dimethylethyl)-N'-ethyl-6-methoxy-

> <Source>
DougDB3DMolFile

> <Tox>
3.656

> <CAS>
33693-04-8

$$$$

  CDK

 22 22  0  0  0  0  0  0  0  0999 V2000
    4.6411   -5.2686    0.0000 C   0  0  0  0  0  0  0  0  0  0  0  0
    4.6411   -3.9491    0.0000 C   0  0  0  0  0  0  0  0  0  0  0  0
    5.7760   -5.9513    0.0000 N   0  0  0  0  0  0  0  0  0  0  0  0
    3.4970   -5.9513    0.0000 C   0  0  0  0  0  0  0  0  0  0  0  0
    3.4693   -3.2755    0.0000 C   0  0  0  0  0  0  0  0  0  0  0  0
    5.7760   -3.3032    0.0000 N   0  0  0  0  0  0  0  0  0  0  0  0
    5.7760   -7.2708    0.0000 O   0  0  0  0  0  0  0  0  0  0  0  0
    6.9478   -5.2686    0.0000 O   0  0  0  0  0  0  0  0  0  0  0  0
    2.3344   -5.2686    0.0000 C   0  0  0  0  0  0  0  0  0  0  0  0
    3.4693   -1.9469    0.0000 N   0  0  0  0  0  0  0  0  0  0  0  0
    2.3344   -3.9491    0.0000 C   0  0  0  0  0  0  0  0  0  0  0  0
    6.9478   -3.9491    0.0000 C   0  0  0  0  0  0  0  0  0  0  0  0
    5.7760   -1.9746    0.0000 C   0  0  0  0  0  0  0  0  0  0  0  0
    1.1626   -5.9513    0.0000 C   0  0  0  0  0  0  0  0  0  0  0  0
    4.6411   -1.3010    0.0000 O   0  0  0  0  0  0  0  0  0  0  0  0
    2.3344   -1.2733    0.0000 O   0  0  0  0  0  0  0  0  0  0  0  0
    8.0828   -3.3032    0.0000 C   0  0  0  0  0  0  0  0  0  0  0  0
    6.9478   -1.3010    0.0000 C   0  0  0  0  0  0  0  0  0  0  0  0
    1.1626   -7.2708    0.0000 C   0  0  0  0  0  0  0  0  0  0  0  0
    0.0000   -5.2686    0.0000 C   0  0  0  0  0  0  0  0  0  0  0  0
    9.2269   -3.9768    0.0000 C   0  0  0  0  0  0  0  0  0  0  0  0
    6.9478   -0.0000    0.0000 C   0  0  0  0  0  0  0  0  0  0  0  0
  1  2  2  0  0  0  0 
  1  3  1  0  0  0  0 
  1  4  1  0  0  0  0 
  5  2  1  0  0  0  0 
  2  6  1  0  0  0  0 
  3  7  1  0  0  0  0 
  3  8  2  0  0  0  0 
  4  9  2  0  0  0  0 
  5 10  1  0  0  0  0 
  5 11  2  0  0  0  0 
  6 12  1  0  0  0  0 
  6 13  1  0  0  0  0 
 11  9  1  0  0  0  0 
  9 14  1  0  0  0  0 
 10 15  1  0  0  0  0 
 10 16  2  0  0  0  0 
 12 17  1  0  0  0  0 
 13 18  1  0  0  0  0 
 14 19  1  0  0  0  0 
 14 20  1  0  0  0  0 
 17 21  1  0  0  0  0 
 18 22  1  0  0  0  0 
M  CHG  1   3   1
M  CHG  1   7  -1
M  CHG  1  10   1
M  CHG  1  15  -1
M  END
> <Name>
Benzenamine, 4-(1-methylethyl)-2,6-dinitro-N,N-dipropyl- (9CI)

> <Source>
DSSTox2DMolFile

> <Tox>
5.852

> <CAS>
33820-53-0

$$$$

  CDK

 24 25  0  0  0  0  0  0  0  0999 V2000
   -3.1027    0.1974   -0.4197 C   0  0  0  0  0  0  0  0  0  0  0  0
   -2.3368   -0.9073   -1.1582 C   0  0  0  0  0  0  0  0  0  0  0  0
   -3.2206    1.3632   -0.7354 O   0  0  0  0  0  0  0  0  0  0  0  0
   -3.7350   -0.2734    0.6954 O   0  0  0  0  0  0  0  0  0  0  0  0
   -1.0523   -1.1881   -0.4399 N   0  0  0  0  0  0  0  0  0  0  0  0
   -2.1595   -0.5614   -2.6322 C   0  0  0  0  0  0  0  0  0  0  0  0
   -4.4338    0.6243    1.5489 C   0  0  0  0  0  0  0  0  0  0  0  0
   -0.2095   -0.0438   -0.0998 C   0  0  0  0  0  0  0  0  0  0  0  0
   -0.4161   -2.4638   -0.6243 C   0  0  0  0  0  0  0  0  0  0  0  0
   -3.5074    1.3691    2.4912 C   0  0  0  0  0  0  0  0  0  0  0  0
    0.3643    0.7648   -1.0852 C   0  0  0  0  0  0  0  0  0  0  0  0
    0.0032    0.2368    1.2560 C   0  0  0  0  0  0  0  0  0  0  0  0
    0.9358   -2.6746   -0.0281 C   0  0  0  0  0  0  0  0  0  0  0  0
   -1.0271   -3.3444   -1.2071 O   0  0  0  0  0  0  0  0  0  0  0  0
    1.1642    1.8389   -0.7064 C   0  0  0  0  0  0  0  0  0  0  0  0
    0.8034    1.3115    1.6237 C   0  0  0  0  0  0  0  0  0  0  0  0
    1.0536   -3.0258    1.3163 C   0  0  0  0  0  0  0  0  0  0  0  0
    2.0699   -2.5808   -0.8339 C   0  0  0  0  0  0  0  0  0  0  0  0
    1.3882    2.1104    0.6440 C   0  0  0  0  0  0  0  0  0  0  0  0
    1.8602    2.8152   -1.8826 Cl  0  0  0  0  0  0  0  0  0  0  0  0
    2.3118   -3.2728    1.8548 C   0  0  0  0  0  0  0  0  0  0  0  0
    3.3247   -2.8277   -0.2869 C   0  0  0  0  0  0  0  0  0  0  0  0
    2.3585    3.4061    1.0874 Cl  0  0  0  0  0  0  0  0  0  0  0  0
    3.4461   -3.1724    1.0554 C   0  0  0  0  0  0  0  0  0  0  0  0
  1  2  1  0  0  0  0 
  1  3  2  0  0  0  0 
  1  4  1  0  0  0  0 
  5  2  1  0  0  0  0 
  2  6  1  0  0  0  0 
  4  7  1  0  0  0  0 
  5  8  1  0  0  0  0 
  5  9  1  0  0  0  0 
  7 10  1  0  0  0  0 
  8 11  1  0  0  0  0 
  8 12  2  0  0  0  0 
  9 13  1  0  0  0  0 
  9 14  2  0  0  0  0 
 11 15  2  0  0  0  0 
 16 12  1  0  0  0  0 
 13 17  1  0  0  0  0 
 13 18  2  0  0  0  0 
 15 19  1  0  0  0  0 
 15 20  1  0  0  0  0 
 19 16  2  0  0  0  0 
 17 21  2  0  0  0  0 
 22 18  1  0  0  0  0 
 19 23  1  0  0  0  0 
 21 24  1  0  0  0  0 
 24 22  2  0  0  0  0 
M  END
> <Name>
Alanine, N-benzoyl-N-(3,4-dichlorophenyl)-, ethyl ester, L-

> <Source>
DougDB3DMolFile

> <Tox>
5.683

> <CAS>
33878-50-1

$$$$

  CDK

 19 19  0  0  0  0  0  0  0  0999 V2000
    0.0000   -3.4603    0.0000 C   0  0  0  0  0  0  0  0  0  0  0  0
    0.6601   -2.2997    0.0000 O   0  0  0  0  0  0  0  0  0  0  0  0
    1.9910   -2.2997    0.0000 C   0  0  0  0  0  0  0  0  0  0  0  0
    2.6617   -1.1499    0.0000 C   0  0  0  0  0  0  0  0  0  0  0  0
    3.9926   -1.1499    0.0000 C   0  0  0  0  0  0  0  0  0  0  0  0
    4.6634   -0.0000    0.0000 N   0  0  0  0  0  0  0  0  0  0  0  0
    5.9942   -0.0000    0.0000 C   0  0  0  0  0  0  0  0  0  0  0  0
    6.6543   -1.1499    0.0000 C   0  0  0  0  0  0  0  0  0  0  0  0
    7.9852   -1.1499    0.0000 C   0  0  0  0  0  0  0  0  0  0  0  0
    5.9942   -2.2997    0.0000 C   0  0  0  0  0  0  0  0  0  0  0  0
    8.6560   -2.2997    0.0000 C   0  0  0  0  0  0  0  0  0  0  0  0
    6.6543   -3.4603    0.0000 C   0  0  0  0  0  0  0  0  0  0  0  0
    9.9762   -2.2997    0.0000 O   0  0  0  0  0  0  0  0  0  0  0  0
    7.9852   -3.4603    0.0000 C   0  0  0  0  0  0  0  0  0  0  0  0
    5.9942   -4.6101    0.0000 O   0  0  0  0  0  0  0  0  0  0  0  0
   10.6470   -1.1499    0.0000 C   0  0  0  0  0  0  0  0  0  0  0  0
    8.6560   -4.6101    0.0000 O   0  0  0  0  0  0  0  0  0  0  0  0
    4.6634   -4.6101    0.0000 C   0  0  0  0  0  0  0  0  0  0  0  0
    9.9762   -4.6101    0.0000 C   0  0  0  0  0  0  0  0  0  0  0  0
  1  2  1  0  0  0  0 
  2  3  1  0  0  0  0 
  3  4  1  0  0  0  0 
  4  5  1  0  0  0  0 
  5  6  1  0  0  0  0 
  6  7  1  0  0  0  0 
  7  8  1  0  0  0  0 
  8  9  2  0  0  0  0 
  8 10  1  0  0  0  0 
  9 11  1  0  0  0  0 
 12 10  2  0  0  0  0 
 11 13  1  0  0  0  0 
 11 14  2  0  0  0  0 
 14 12  1  0  0  0  0 
 12 15  1  0  0  0  0 
 13 16  1  0  0  0  0 
 14 17  1  0  0  0  0 
 15 18  1  0  0  0  0 
 17 19  1  0  0  0  0 
M  END
> <Name>
N-(3-Methoxypropyl)-3,4,5-trimethoxybenzylamine

> <Source>
DSSTox2DMolFile

> <Tox>
3.297

> <CAS>
34274-04-9

$$$$

  CDK

  8  8  0  0  0  0  0  0  0  0999 V2000
    0.0000   -0.0000    0.0000 Br  0  0  0  0  0  0  0  0  0  0  0  0
    0.6654   -1.1540    0.0000 C   0  0  0  0  0  0  0  0  0  0  0  0
    1.9962   -1.1540    0.0000 C   0  0  0  0  0  0  0  0  0  0  0  0
    2.6569   -0.0000    0.0000 O   0  0  0  0  0  0  0  0  0  0  0  0
    2.6569   -2.3033    0.0000 C   0  0  0  0  0  0  0  0  0  0  0  0
    3.9877   -0.0000    0.0000 C   0  0  0  0  0  0  0  0  0  0  0  0
    3.9877   -2.3033    0.0000 C   0  0  0  0  0  0  0  0  0  0  0  0
    4.6531   -1.1540    0.0000 C   0  0  0  0  0  0  0  0  0  0  0  0
  1  2  1  0  0  0  0 
  2  3  1  0  0  0  0 
  3  4  1  0  0  0  0 
  3  5  1  0  0  0  0 
  4  6  1  0  0  0  0 
  7  5  1  0  0  0  0 
  6  8  1  0  0  0  0 
  8  7  1  0  0  0  0 
M  END
> <Name>
2H-Pyran, 2-(bromomethyl)tetrahydro-

> <Source>
DSSTox2DMolFile

> <Tox>
2.941

> <CAS>
34723-82-5

$$$$

  CDK

 14 14  0  0  0  0  0  0  0  0999 V2000
   -0.0434    1.8549    0.0183 C   0  0  0  0  0  0  0  0  0  0  0  0
   -1.1881    1.0266    0.0378 C   0  0  0  0  0  0  0  0  0  0  0  0
    1.2401    1.2929   -0.0076 C   0  0  0  0  0  0  0  0  0  0  0  0
   -0.1564    3.2725    0.1357 N   0  0  0  0  0  0  0  0  0  0  0  0
   -0.9977   -0.3617    0.0117 C   0  0  0  0  0  0  0  0  0  0  0  0
   -2.5507    1.6248    0.0650 C   0  0  0  0  0  0  0  0  0  0  0  0
    1.3996   -0.0932   -0.0125 C   0  0  0  0  0  0  0  0  0  0  0  0
    0.2788   -0.9246   -0.0010 C   0  0  0  0  0  0  0  0  0  0  0  0
   -2.1676   -1.3167   -0.0127 N   0  0  0  0  0  0  0  0  0  0  0  0
    2.7803   -0.6897   -0.0345 N   0  0  0  0  0  0  0  0  0  0  0  0
   -2.8586   -1.3665   -1.0079 O   0  0  0  0  0  0  0  0  0  0  0  0
   -2.3730   -2.0111    0.9584 O   0  0  0  0  0  0  0  0  0  0  0  0
    3.7432    0.0496   -0.0431 O   0  0  0  0  0  0  0  0  0  0  0  0
    2.9032   -1.8967   -0.0497 O   0  0  0  0  0  0  0  0  0  0  0  0
  1  2  1  0  0  0  0 
  1  3  2  0  0  0  0 
  1  4  1  0  0  0  0 
  2  5  2  0  0  0  0 
  2  6  1  0  0  0  0 
  7  3  1  0  0  0  0 
  5  8  1  0  0  0  0 
  5  9  1  0  0  0  0 
  8  7  2  0  0  0  0 
  7 10  1  0  0  0  0 
  9 11  2  0  0  0  0 
  9 12  1  0  0  0  0 
 10 13  2  0  0  0  0 
 10 14  1  0  0  0  0 
M  CHG  1   9   1
M  CHG  1  10   1
M  CHG  1  12  -1
M  CHG  1  14  -1
M  END
> <Name>
Benzenamine, 3,5-dinitro-2-methyl- (9CI)

> <Source>
DougDB3DMolFile

> <Tox>
4.120

> <CAS>
35572-78-2

$$$$

  CDK

 17 17  0  0  0  0  0  0  0  0999 V2000
    0.0000   -4.6082    0.0000 N   0  0  0  0  0  0  0  0  0  0  0  0
    0.6703   -3.4591    0.0000 C   0  0  0  0  0  0  0  0  0  0  0  0
    0.0000   -2.3101    0.0000 C   0  0  0  0  0  0  0  0  0  0  0  0
    1.9989   -3.4591    0.0000 C   0  0  0  0  0  0  0  0  0  0  0  0
    0.6703   -1.1491    0.0000 C   0  0  0  0  0  0  0  0  0  0  0  0
    2.6572   -2.3101    0.0000 C   0  0  0  0  0  0  0  0  0  0  0  0
    1.9989   -1.1491    0.0000 C   0  0  0  0  0  0  0  0  0  0  0  0
    2.6572   -0.0000    0.0000 C   0  0  0  0  0  0  0  0  0  0  0  0
    3.9858   -0.0000    0.0000 C   0  0  0  0  0  0  0  0  0  0  0  0
    4.6561   -1.1491    0.0000 C   0  0  0  0  0  0  0  0  0  0  0  0
    5.9847   -1.1491    0.0000 C   0  0  0  0  0  0  0  0  0  0  0  0
    6.6550   -2.3101    0.0000 C   0  0  0  0  0  0  0  0  0  0  0  0
    7.9836   -2.3101    0.0000 C   0  0  0  0  0  0  0  0  0  0  0  0
    8.6419   -3.4591    0.0000 C   0  0  0  0  0  0  0  0  0  0  0  0
    9.9705   -3.4591    0.0000 C   0  0  0  0  0  0  0  0  0  0  0  0
   10.6407   -4.6082    0.0000 C   0  0  0  0  0  0  0  0  0  0  0  0
   11.9693   -4.6082    0.0000 C   0  0  0  0  0  0  0  0  0  0  0  0
  1  2  1  0  0  0  0 
  2  3  2  0  0  0  0 
  2  4  1  0  0  0  0 
  3  5  1  0  0  0  0 
  6  4  2  0  0  0  0 
  5  7  2  0  0  0  0 
  7  6  1  0  0  0  0 
  7  8  1  0  0  0  0 
  8  9  1  0  0  0  0 
  9 10  1  0  0  0  0 
 10 11  1  0  0  0  0 
 11 12  1  0  0  0  0 
 12 13  1  0  0  0  0 
 13 14  1  0  0  0  0 
 14 15  1  0  0  0  0 
 15 16  1  0  0  0  0 
 16 17  1  0  0  0  0 
M  END
> <Name>
4-Decylaniline

> <Source>
DSSTox2DMolFile

> <Tox>
6.569

> <CAS>
37529-30-9

$$$$

  CDK

 15 16  0  0  0  0  0  0  0  0999 V2000
   -0.2483   -0.2074    0.2756 C   0  0  0  0  0  0  0  0  0  0  0  0
   -0.5772   -1.5120   -0.1057 C   0  0  0  0  0  0  0  0  0  0  0  0
   -1.2663    0.7303    0.4563 C   0  0  0  0  0  0  0  0  0  0  0  0
    1.1485    0.1891    0.5102 C   0  0  0  0  0  0  0  0  0  0  0  0
   -1.9073   -1.8796   -0.3103 C   0  0  0  0  0  0  0  0  0  0  0  0
    0.6226   -2.6720   -0.3296 Cl  0  0  0  0  0  0  0  0  0  0  0  0
   -2.5903    0.3534    0.2512 C   0  0  0  0  0  0  0  0  0  0  0  0
    1.8916    0.8427   -0.4765 C   0  0  0  0  0  0  0  0  0  0  0  0
    1.7399   -0.0732    1.7481 C   0  0  0  0  0  0  0  0  0  0  0  0
   -2.9189   -0.9458   -0.1320 C   0  0  0  0  0  0  0  0  0  0  0  0
   -3.8166    1.4883    0.4695 Cl  0  0  0  0  0  0  0  0  0  0  0  0
    3.2100    1.2252   -0.2336 C   0  0  0  0  0  0  0  0  0  0  0  0
    1.2157    1.1830   -1.9819 Cl  0  0  0  0  0  0  0  0  0  0  0  0
    3.0540    0.3102    1.9899 C   0  0  0  0  0  0  0  0  0  0  0  0
    3.7886    0.9576    1.0006 C   0  0  0  0  0  0  0  0  0  0  0  0
  1  2  1  0  0  0  0 
  1  3  2  0  0  0  0 
  1  4  1  0  0  0  0 
  2  5  2  0  0  0  0 
  2  6  1  0  0  0  0 
  7  3  1  0  0  0  0 
  4  8  1  0  0  0  0 
  4  9  2  0  0  0  0 
  5 10  1  0  0  0  0 
 10  7  2  0  0  0  0 
  7 11  1  0  0  0  0 
  8 12  2  0  0  0  0 
  8 13  1  0  0  0  0 
 14  9  1  0  0  0  0 
 12 15  1  0  0  0  0 
 15 14  2  0  0  0  0 
M  END
> <Name>
1,1'-Biphenyl, 2,2',5-trichloro-

> <Source>
DougDB3DMolFile

> <Tox>
6.882

> <CAS>
37680-65-2

$$$$

  CDK

 18 18  0  0  0  0  0  0  0  0999 V2000
    1.1537   -3.3320    0.0000 C   0  0  0  0  0  0  0  0  0  0  0  0
    0.0000   -3.9855    0.0000 Br  0  0  0  0  0  0  0  0  0  0  0  0
    2.3074   -3.9855    0.0000 C   0  0  0  0  0  0  0  0  0  0  0  0
    1.1537   -2.0008    0.0000 C   0  0  0  0  0  0  0  0  0  0  0  0
    3.4611   -3.3320    0.0000 C   0  0  0  0  0  0  0  0  0  0  0  0
    2.3074   -1.3312    0.0000 C   0  0  0  0  0  0  0  0  0  0  0  0
    3.4611   -2.0008    0.0000 C   0  0  0  0  0  0  0  0  0  0  0  0
    2.3074   -0.0000    0.0000 Cl  0  0  0  0  0  0  0  0  0  0  0  0
    4.6067   -1.3312    0.0000 O   0  0  0  0  0  0  0  0  0  0  0  0
    5.7604   -2.0008    0.0000 P   0  0  0  0  0  0  0  0  0  0  0  0
    6.9140   -2.6543    0.0000 S   0  0  0  0  0  0  0  0  0  0  0  0
    6.4219   -0.8471    0.0000 O   0  0  0  0  0  0  0  0  0  0  0  0
    5.0907   -3.1545    0.0000 O   0  0  0  0  0  0  0  0  0  0  0  0
    6.9140   -3.9855    0.0000 C   0  0  0  0  0  0  0  0  0  0  0  0
    5.7604   -4.3082    0.0000 C   0  0  0  0  0  0  0  0  0  0  0  0
    8.0677   -4.6551    0.0000 C   0  0  0  0  0  0  0  0  0  0  0  0
    5.0907   -5.4457    0.0000 C   0  0  0  0  0  0  0  0  0  0  0  0
    8.0677   -5.9863    0.0000 C   0  0  0  0  0  0  0  0  0  0  0  0
  1  2  1  0  0  0  0 
  1  3  1  0  0  0  0 
  1  4  2  0  0  0  0 
  5  3  2  0  0  0  0 
  4  6  1  0  0  0  0 
  7  5  1  0  0  0  0 
  6  8  1  0  0  0  0 
  6  7  2  0  0  0  0 
  7  9  1  0  0  0  0 
  9 10  1  0  0  0  0 
 10 11  1  0  0  0  0 
 10 12  2  0  0  0  0 
 10 13  1  0  0  0  0 
 11 14  1  0  0  0  0 
 13 15  1  0  0  0  0 
 14 16  1  0  0  0  0 
 15 17  1  0  0  0  0 
 16 18  1  0  0  0  0 
M  END
> <Name>
Phosphorothioic acid, O-(4-bromo-2-chlorophenyl) O-ethyl S-propyl ester

> <Source>
DSSTox2DMolFile

> <Tox>
6.645

> <CAS>
41198-08-7

$$$$

  CDK

 14 14  0  0  0  0  0  0  0  0999 V2000
    2.6570   -2.3040    0.0000 C   0  0  0  0  0  0  0  0  0  0  0  0
    1.9928   -1.1490    0.0000 N   0  0  0  0  0  0  0  0  0  0  0  0
    3.9916   -2.3040    0.0000 C   0  0  0  0  0  0  0  0  0  0  0  0
    1.9928   -3.4530    0.0000 C   0  0  0  0  0  0  0  0  0  0  0  0
    2.6570   -0.0000    0.0000 O   0  0  0  0  0  0  0  0  0  0  0  0
    0.6643   -1.1490    0.0000 O   0  0  0  0  0  0  0  0  0  0  0  0
    4.6558   -3.4530    0.0000 C   0  0  0  0  0  0  0  0  0  0  0  0
    2.6570   -4.6079    0.0000 C   0  0  0  0  0  0  0  0  0  0  0  0
    0.6643   -3.4530    0.0000 C   0  0  0  0  0  0  0  0  0  0  0  0
    5.9843   -3.4530    0.0000 Cl  0  0  0  0  0  0  0  0  0  0  0  0
    3.9916   -4.6079    0.0000 C   0  0  0  0  0  0  0  0  0  0  0  0
    0.0000   -2.3040    0.0000 O   0  0  0  0  0  0  0  0  0  0  0  0
    0.0000   -4.6079    0.0000 O   0  0  0  0  0  0  0  0  0  0  0  0
    0.6643   -5.7569    0.0000 C   0  0  0  0  0  0  0  0  0  0  0  0
  1  2  1  0  0  0  0 
  1  3  2  0  0  0  0 
  1  4  1  0  0  0  0 
  2  5  2  0  0  0  0 
  2  6  1  0  0  0  0 
  3  7  1  0  0  0  0 
  8  4  2  0  0  0  0 
  4  9  1  0  0  0  0 
  7 10  1  0  0  0  0 
  7 11  2  0  0  0  0 
 11  8  1  0  0  0  0 
  9 12  2  0  0  0  0 
  9 13  1  0  0  0  0 
 13 14  1  0  0  0  0 
M  CHG  1   2   1
M  CHG  1   6  -1
M  END
> <Name>
Methyl 4-chloro-2-nitrobenzoate

> <Source>
DSSTox2DMolFile

> <Tox>
3.895

> <CAS>
42087-80-9

$$$$

  CDK

 12 12  0  0  0  0  0  0  0  0999 V2000
    3.3264   -2.3033    0.0000 C   0  0  0  0  0  0  0  0  0  0  0  0
    3.9905   -1.1547    0.0000 C   0  0  0  0  0  0  0  0  0  0  0  0
    3.9905   -3.4580    0.0000 C   0  0  0  0  0  0  0  0  0  0  0  0
    1.9922   -2.3033    0.0000 C   0  0  0  0  0  0  0  0  0  0  0  0
    3.3264   -0.0000    0.0000 O   0  0  0  0  0  0  0  0  0  0  0  0
    5.3186   -3.4580    0.0000 N   0  0  0  0  0  0  0  0  0  0  0  0
    3.3264   -4.6067    0.0000 C   0  0  0  0  0  0  0  0  0  0  0  0
    1.3282   -3.4580    0.0000 C   0  0  0  0  0  0  0  0  0  0  0  0
    5.9827   -4.6067    0.0000 O   0  0  0  0  0  0  0  0  0  0  0  0
    5.9827   -2.3033    0.0000 O   0  0  0  0  0  0  0  0  0  0  0  0
    1.9922   -4.6067    0.0000 C   0  0  0  0  0  0  0  0  0  0  0  0
    0.0000   -3.4580    0.0000 O   0  0  0  0  0  0  0  0  0  0  0  0
  1  2  1  0  0  0  0 
  1  3  2  0  0  0  0 
  1  4  1  0  0  0  0 
  2  5  2  0  0  0  0 
  3  6  1  0  0  0  0 
  3  7  1  0  0  0  0 
  8  4  2  0  0  0  0 
  6  9  2  0  0  0  0 
  6 10  1  0  0  0  0 
  7 11  2  0  0  0  0 
 11  8  1  0  0  0  0 
  8 12  1  0  0  0  0 
M  CHG  1   6   1
M  CHG  1  10  -1
M  END
> <Name>
Benzaldehyde, 5-hydroxy-2-nitro-

> <Source>
DSSTox2DMolFile

> <Tox>
3.601

> <CAS>
42454-06-8

$$$$

  CDK

 19 19  0  0  0  0  0  0  0  0999 V2000
    3.9875   -4.6095    0.0000 N   0  0  0  0  0  0  0  0  0  0  0  0
    2.6607   -4.6095    0.0000 C   0  0  0  0  0  0  0  0  0  0  0  0
    4.6579   -5.7567    0.0000 C   0  0  0  0  0  0  0  0  0  0  0  0
    4.6579   -3.4554    0.0000 C   0  0  0  0  0  0  0  0  0  0  0  0
    1.9972   -5.7567    0.0000 C   0  0  0  0  0  0  0  0  0  0  0  0
    1.9972   -3.4554    0.0000 C   0  0  0  0  0  0  0  0  0  0  0  0
    3.9875   -6.9108    0.0000 O   0  0  0  0  0  0  0  0  0  0  0  0
    5.9848   -5.7567    0.0000 C   0  0  0  0  0  0  0  0  0  0  0  0
    3.9875   -2.3013    0.0000 C   0  0  0  0  0  0  0  0  0  0  0  0
    5.9848   -3.4554    0.0000 C   0  0  0  0  0  0  0  0  0  0  0  0
    0.6634   -5.7567    0.0000 C   0  0  0  0  0  0  0  0  0  0  0  0
    2.6607   -6.9108    0.0000 C   0  0  0  0  0  0  0  0  0  0  0  0
    0.6634   -3.4554    0.0000 C   0  0  0  0  0  0  0  0  0  0  0  0
    2.6607   -2.3013    0.0000 C   0  0  0  0  0  0  0  0  0  0  0  0
    6.6482   -4.6095    0.0000 Cl  0  0  0  0  0  0  0  0  0  0  0  0
    4.6579   -1.1541    0.0000 O   0  0  0  0  0  0  0  0  0  0  0  0
    0.0000   -4.6095    0.0000 C   0  0  0  0  0  0  0  0  0  0  0  0
    1.9972   -1.1541    0.0000 C   0  0  0  0  0  0  0  0  0  0  0  0
    3.9875   -0.0000    0.0000 C   0  0  0  0  0  0  0  0  0  0  0  0
  1  2  1  0  0  0  0 
  1  3  1  0  0  0  0 
  1  4  1  0  0  0  0 
  2  5  1  0  0  0  0 
  2  6  2  0  0  0  0 
  3  7  2  0  0  0  0 
  3  8  1  0  0  0  0 
  4  9  1  0  0  0  0 
  4 10  1  0  0  0  0 
  5 11  2  0  0  0  0 
  5 12  1  0  0  0  0 
 13  6  1  0  0  0  0 
  6 14  1  0  0  0  0 
  8 15  1  0  0  0  0 
  9 16  1  0  0  0  0 
 11 17  1  0  0  0  0 
 17 13  2  0  0  0  0 
 14 18  1  0  0  0  0 
 16 19  1  0  0  0  0 
M  END
> <Name>
Acetamide, 2-chloro-N-(2-ethyl-6-methylphenyl)-N-(2-methoxy-1-methylethyl)-

> <Source>
DSSTox2DMolFile

> <Tox>
4.539

> <CAS>
51218-45-2

$$$$

  CDK

 30 32  0  0  0  0  0  0  0  0999 V2000
    3.4569   -1.3252    0.0000 O   0  0  0  0  0  0  0  0  0  0  0  0
    3.4569   -2.6618    0.0000 C   0  0  0  0  0  0  0  0  0  0  0  0
    2.3046   -3.3186    0.0000 C   0  0  0  0  0  0  0  0  0  0  0  0
    4.6092   -3.3186    0.0000 O   0  0  0  0  0  0  0  0  0  0  0  0
    2.3046   -4.6553    0.0000 C   0  0  0  0  0  0  0  0  0  0  0  0
    1.1523   -2.6618    0.0000 C   0  0  0  0  0  0  0  0  0  0  0  0
    5.7615   -2.6618    0.0000 C   0  0  0  0  0  0  0  0  0  0  0  0
    3.4569   -5.3237    0.0000 C   0  0  0  0  0  0  0  0  0  0  0  0
    1.1523   -5.3237    0.0000 C   0  0  0  0  0  0  0  0  0  0  0  0
    0.0000   -3.3186    0.0000 C   0  0  0  0  0  0  0  0  0  0  0  0
    1.1523   -1.3252    0.0000 C   0  0  0  0  0  0  0  0  0  0  0  0
    6.9138   -3.3186    0.0000 C   0  0  0  0  0  0  0  0  0  0  0  0
    5.7615   -1.3252    0.0000 C   0  0  0  0  0  0  0  0  0  0  0  0
    3.4569   -6.6488    0.0000 C   0  0  0  0  0  0  0  0  0  0  0  0
    1.1523   -6.6488    0.0000 C   0  0  0  0  0  0  0  0  0  0  0  0
    8.0661   -2.6618    0.0000 C   0  0  0  0  0  0  0  0  0  0  0  0
    6.9138   -4.6553    0.0000 C   0  0  0  0  0  0  0  0  0  0  0  0
    5.7615   -0.0000    0.0000 N   0  0  0  0  0  0  0  0  0  0  0  0
    2.3046   -7.3171    0.0000 C   0  0  0  0  0  0  0  0  0  0  0  0
    9.2184   -3.3186    0.0000 C   0  0  0  0  0  0  0  0  0  0  0  0
    8.0661   -5.3237    0.0000 C   0  0  0  0  0  0  0  0  0  0  0  0
    2.3046   -8.6423    0.0000 Cl  0  0  0  0  0  0  0  0  0  0  0  0
    9.2184   -4.6553    0.0000 C   0  0  0  0  0  0  0  0  0  0  0  0
    8.0661   -6.6488    0.0000 O   0  0  0  0  0  0  0  0  0  0  0  0
    9.2184   -7.3171    0.0000 C   0  0  0  0  0  0  0  0  0  0  0  0
   10.3708   -6.6488    0.0000 C   0  0  0  0  0  0  0  0  0  0  0  0
    9.2184   -8.6423    0.0000 C   0  0  0  0  0  0  0  0  0  0  0  0
   11.5231   -7.3171    0.0000 C   0  0  0  0  0  0  0  0  0  0  0  0
   10.3708   -9.3106    0.0000 C   0  0  0  0  0  0  0  0  0  0  0  0
   11.5231   -8.6423    0.0000 C   0  0  0  0  0  0  0  0  0  0  0  0
  1  2  2  0  0  0  0 
  2  3  1  0  0  0  0 
  2  4  1  0  0  0  0 
  3  5  1  0  0  0  0 
  3  6  1  0  0  0  0 
  4  7  1  0  0  0  0 
  5  8  2  0  0  0  0 
  5  9  1  0  0  0  0 
  6 10  1  0  0  0  0 
  6 11  1  0  0  0  0 
  7 12  1  0  0  0  0 
  7 13  1  0  0  0  0 
  8 14  1  0  0  0  0 
 15  9  2  0  0  0  0 
 12 16  2  0  0  0  0 
 12 17  1  0  0  0  0 
 13 18  3  0  0  0  0 
 14 19  2  0  0  0  0 
 19 15  1  0  0  0  0 
 16 20  1  0  0  0  0 
 21 17  2  0  0  0  0 
 19 22  1  0  0  0  0 
 20 23  2  0  0  0  0 
 23 21  1  0  0  0  0 
 21 24  1  0  0  0  0 
 24 25  1  0  0  0  0 
 25 26  2  0  0  0  0 
 25 27  1  0  0  0  0 
 26 28  1  0  0  0  0 
 29 27  2  0  0  0  0 
 28 30  2  0  0  0  0 
 30 29  1  0  0  0  0 
M  END
> <Name>
Benzeneacetic acid, 4-chloro-alpha-(1-methylethyl)-, cyano(3-phenoxyphenyl)methyl ester

> <Source>
DSSTox2DMolFile

> <Tox>
8.137

> <CAS>
51630-58-1

$$$$

  CDK

 10  9  0  0  0  0  0  0  0  0999 V2000
    0.0000   -0.6638    0.0000 C   0  0  0  0  0  0  0  0  0  0  0  0
    1.1513   -0.0000    0.0000 C   0  0  0  0  0  0  0  0  0  0  0  0
    2.3027   -0.6638    0.0000 S   0  0  0  0  0  0  0  0  0  0  0  0
    3.4540   -0.0000    0.0000 C   0  0  0  0  0  0  0  0  0  0  0  0
    4.6053   -0.6638    0.0000 C   0  0  0  0  0  0  0  0  0  0  0  0
    5.7670   -0.0000    0.0000 C   0  0  0  0  0  0  0  0  0  0  0  0
    6.9184   -0.6638    0.0000 C   0  0  0  0  0  0  0  0  0  0  0  0
    8.0697   -0.0000    0.0000 S   0  0  0  0  0  0  0  0  0  0  0  0
    9.2210   -0.6638    0.0000 C   0  0  0  0  0  0  0  0  0  0  0  0
   10.3724   -0.0000    0.0000 C   0  0  0  0  0  0  0  0  0  0  0  0
  1  2  1  0  0  0  0 
  2  3  1  0  0  0  0 
  3  4  1  0  0  0  0 
  4  5  1  0  0  0  0 
  5  6  1  0  0  0  0 
  6  7  1  0  0  0  0 
  7  8  1  0  0  0  0 
  8  9  1  0  0  0  0 
  9 10  1  0  0  0  0 
M  END
> <Name>
1,4-bis(ethylthio)butane

> <Source>
DSSTox2DMolFile

> <Tox>
4.469

> <CAS>
54576-32-8

$$$$

  CDK

 13 13  0  0  0  0  0  0  0  0999 V2000
    2.6629   -0.1829    0.0000 C   0  0  0  0  0  0  0  0  0  0  0  0
    3.9871   -0.1829    0.0000 C   0  0  0  0  0  0  0  0  0  0  0  0
    1.9972   -1.3315    0.0000 C   0  0  0  0  0  0  0  0  0  0  0  0
    4.6528   -1.3315    0.0000 C   0  0  0  0  0  0  0  0  0  0  0  0
    2.6629   -2.4874    0.0000 C   0  0  0  0  0  0  0  0  0  0  0  0
    0.6657   -1.3315    0.0000 C   0  0  0  0  0  0  0  0  0  0  0  0
    5.9843   -1.3315    0.0000 C   0  0  0  0  0  0  0  0  0  0  0  0
    3.9871   -2.4874    0.0000 C   0  0  0  0  0  0  0  0  0  0  0  0
    0.0000   -2.4874    0.0000 O   0  0  0  0  0  0  0  0  0  0  0  0
    0.0000   -0.1829    0.0000 N   0  0  0  0  0  0  0  0  0  0  0  0
    5.9843   -2.6629    0.0000 C   0  0  0  0  0  0  0  0  0  0  0  0
    5.9843   -0.0000    0.0000 C   0  0  0  0  0  0  0  0  0  0  0  0
    7.3157   -1.3315    0.0000 C   0  0  0  0  0  0  0  0  0  0  0  0
  1  2  2  0  0  0  0 
  1  3  1  0  0  0  0 
  2  4  1  0  0  0  0 
  5  3  2  0  0  0  0 
  3  6  1  0  0  0  0 
  4  7  1  0  0  0  0 
  4  8  2  0  0  0  0 
  8  5  1  0  0  0  0 
  6  9  2  0  0  0  0 
  6 10  1  0  0  0  0 
  7 11  1  0  0  0  0 
  7 12  1  0  0  0  0 
  7 13  1  0  0  0  0 
M  END
> <Name>
Benzamide, 4-(1,1-dimethylethyl)-

> <Source>
DSSTox2DMolFile

> <Tox>
3.745

> <CAS>
56108-12-4

$$$$

  CDK

 14 14  0  0  0  0  0  0  0  0999 V2000
    0.7226    0.8854   -0.0030 C   0  0  0  0  0  0  0  0  0  0  0  0
   -0.7044    0.8863   -0.0492 C   0  0  0  0  0  0  0  0  0  0  0  0
    1.3899   -0.3321    0.0031 C   0  0  0  0  0  0  0  0  0  0  0  0
    1.4772    2.1705    0.0241 C   0  0  0  0  0  0  0  0  0  0  0  0
   -1.4025   -0.3440   -0.0174 C   0  0  0  0  0  0  0  0  0  0  0  0
   -1.3914    2.0939   -0.2344 N   0  0  0  0  0  0  0  0  0  0  0  0
    0.6941   -1.5496   -0.0139 C   0  0  0  0  0  0  0  0  0  0  0  0
    2.8993   -0.4053    0.0213 N   0  0  0  0  0  0  0  0  0  0  0  0
   -0.6847   -1.5517   -0.0144 C   0  0  0  0  0  0  0  0  0  0  0  0
   -2.8914   -0.4078    0.0375 N   0  0  0  0  0  0  0  0  0  0  0  0
    3.4705   -0.3919    1.0907 O   0  0  0  0  0  0  0  0  0  0  0  0
    3.4905   -0.4839   -1.0334 O   0  0  0  0  0  0  0  0  0  0  0  0
   -3.4641   -1.4655   -0.1017 O   0  0  0  0  0  0  0  0  0  0  0  0
   -3.5197    0.6226    0.2412 O   0  0  0  0  0  0  0  0  0  0  0  0
  1  2  1  0  0  0  0 
  1  3  2  0  0  0  0 
  1  4  1  0  0  0  0 
  2  5  2  0  0  0  0 
  2  6  1  0  0  0  0 
  3  7  1  0  0  0  0 
  3  8  1  0  0  0  0 
  9  5  1  0  0  0  0 
  5 10  1  0  0  0  0 
  9  7  2  0  0  0  0 
  8 11  2  0  0  0  0 
  8 12  1  0  0  0  0 
 10 13  2  0  0  0  0 
 10 14  1  0  0  0  0 
M  CHG  1   8   1
M  CHG  1  10   1
M  CHG  1  12  -1
M  CHG  1  14  -1
M  END
> <Name>
Benzenamine, 3,6-dinitro-2-methyl- (9CI)

> <Source>
DougDB3DMolFile

> <Tox>
5.372

> <CAS>
56207-39-7

$$$$

  CDK

 16 17  0  0  0  0  0  0  0  0999 V2000
    2.2983   -1.4323    0.0000 C   0  0  0  0  0  0  0  0  0  0  0  0
    1.4323   -0.0000    0.0000 O   0  0  0  0  0  0  0  0  0  0  0  0
    1.2058   -2.0585    0.0000 C   0  0  0  0  0  0  0  0  0  0  0  0
    3.1244   -0.0000    0.0000 C   0  0  0  0  0  0  0  0  0  0  0  0
    3.3909   -2.0785    0.0000 C   0  0  0  0  0  0  0  0  0  0  0  0
    1.2058   -3.4108    0.0000 C   0  0  0  0  0  0  0  0  0  0  0  0
    3.3909   -3.3509    0.0000 C   0  0  0  0  0  0  0  0  0  0  0  0
    4.4634   -1.4456    0.0000 C   0  0  0  0  0  0  0  0  0  0  0  0
    2.3116   -3.4108    0.0000 Cl  0  0  0  0  0  0  0  0  0  0  0  0
    1.2058   -4.7432    0.0000 Cl  0  0  0  0  0  0  0  0  0  0  0  0
    0.0000   -3.4108    0.0000 Cl  0  0  0  0  0  0  0  0  0  0  0  0
    4.4634   -3.9571    0.0000 C   0  0  0  0  0  0  0  0  0  0  0  0
    5.5693   -2.0785    0.0000 C   0  0  0  0  0  0  0  0  0  0  0  0
    4.4634   -5.2029    0.0000 Cl  0  0  0  0  0  0  0  0  0  0  0  0
    5.5693   -3.3509    0.0000 C   0  0  0  0  0  0  0  0  0  0  0  0
    6.6618   -1.4456    0.0000 Cl  0  0  0  0  0  0  0  0  0  0  0  0
  1  2  1  0  0  0  0 
  1  3  1  0  0  0  0 
  1  4  1  0  0  0  0 
  1  5  1  0  0  0  0 
  2  4  1  0  0  0  0 
  3  6  1  0  0  0  0 
  5  7  1  0  0  0  0 
  5  8  2  0  0  0  0 
  6  9  1  0  0  0  0 
  6 10  1  0  0  0  0 
  6 11  1  0  0  0  0 
  7 12  2  0  0  0  0 
  8 13  1  0  0  0  0 
 12 14  1  0  0  0  0 
 12 15  1  0  0  0  0 
 13 15  2  0  0  0  0 
 13 16  1  0  0  0  0 
M  END
> <Name>
Oxirane, 2-(3,5-dichlorophenyl)-2-(2,2,2-trichloroethyl)-

> <Source>
DSSTox2DMolFile

> <Tox>
5.385

> <CAS>
58138-08-2

$$$$

  CDK

  5  4  0  0  0  0  0  0  0  0999 V2000
    1.9939   -3.4556    0.0000 C   0  0  0  0  0  0  0  0  0  0  0  0
    1.3304   -2.3049    0.0000 C   0  0  0  0  0  0  0  0  0  0  0  0
    0.0000   -2.3049    0.0000 O   0  0  0  0  0  0  0  0  0  0  0  0
    1.9939   -1.1507    0.0000 C   0  0  0  0  0  0  0  0  0  0  0  0
    2.6608   -0.0000    0.0000 C   0  0  0  0  0  0  0  0  0  0  0  0
  1  2  1  0  0  0  0 
  2  3  1  0  0  0  0 
  2  4  1  0  0  0  0 
  4  5  3  0  0  0  0 
M  END
> <Name>
3-Butyn-2-ol

> <Source>
DSSTox2DMolFile

> <Tox>
3.777

> <CAS>
65337-13-5

$$$$

  CDK

 30 32  0  0  0  0  0  0  0  0999 V2000
    3.9890   -3.3302    0.0000 C   0  0  0  0  0  0  0  0  0  0  0  0
    5.3187   -3.3302    0.0000 C   0  0  0  0  0  0  0  0  0  0  0  0
    3.3182   -2.2041    0.0000 C   0  0  0  0  0  0  0  0  0  0  0  0
    3.3661   -4.5161    0.0000 C   0  0  0  0  0  0  0  0  0  0  0  0
    5.9775   -4.4801    0.0000 C   0  0  0  0  0  0  0  0  0  0  0  0
    5.9895   -2.2041    0.0000 C   0  0  0  0  0  0  0  0  0  0  0  0
    1.9885   -2.2041    0.0000 C   0  0  0  0  0  0  0  0  0  0  0  0
    2.0364   -4.5161    0.0000 C   0  0  0  0  0  0  0  0  0  0  0  0
    7.2593   -4.4801    0.0000 O   0  0  0  0  0  0  0  0  0  0  0  0
    5.3187   -5.6181    0.0000 O   0  0  0  0  0  0  0  0  0  0  0  0
    7.3072   -2.2041    0.0000 C   0  0  0  0  0  0  0  0  0  0  0  0
    5.3307   -1.0542    0.0000 C   0  0  0  0  0  0  0  0  0  0  0  0
    1.3297   -3.4260    0.0000 C   0  0  0  0  0  0  0  0  0  0  0  0
    7.9900   -5.6541    0.0000 C   0  0  0  0  0  0  0  0  0  0  0  0
    0.0000   -3.4380    0.0000 Cl  0  0  0  0  0  0  0  0  0  0  0  0
    9.3077   -5.6541    0.0000 C   0  0  0  0  0  0  0  0  0  0  0  0
    7.3072   -6.7921    0.0000 C   0  0  0  0  0  0  0  0  0  0  0  0
    9.9785   -4.5640    0.0000 C   0  0  0  0  0  0  0  0  0  0  0  0
    9.9785   -6.8400    0.0000 C   0  0  0  0  0  0  0  0  0  0  0  0
    6.6124   -8.2296    0.0000 N   0  0  0  0  0  0  0  0  0  0  0  0
   11.2603   -4.5640    0.0000 C   0  0  0  0  0  0  0  0  0  0  0  0
   11.2962   -6.8400    0.0000 C   0  0  0  0  0  0  0  0  0  0  0  0
   11.9431   -3.4260    0.0000 O   0  0  0  0  0  0  0  0  0  0  0  0
   11.9790   -5.6780    0.0000 C   0  0  0  0  0  0  0  0  0  0  0  0
   11.2962   -2.2521    0.0000 C   0  0  0  0  0  0  0  0  0  0  0  0
   11.8951   -1.0901    0.0000 C   0  0  0  0  0  0  0  0  0  0  0  0
    9.9905   -2.2521    0.0000 C   0  0  0  0  0  0  0  0  0  0  0  0
   11.2483   -0.0000    0.0000 C   0  0  0  0  0  0  0  0  0  0  0  0
    9.2837   -1.1500    0.0000 C   0  0  0  0  0  0  0  0  0  0  0  0
    9.9426   -0.0000    0.0000 C   0  0  0  0  0  0  0  0  0  0  0  0
  1  2  1  0  0  0  0 
  1  3  2  0  0  0  0 
  1  4  1  0  0  0  0 
  2  5  1  0  0  0  0 
  2  6  1  6  0  0  0 
  3  7  1  0  0  0  0 
  4  8  2  0  0  0  0 
  5  9  1  0  0  0  0 
  5 10  2  0  0  0  0 
  6 11  1  0  0  0  0 
  6 12  1  0  0  0  0 
  7 13  2  0  0  0  0 
  8 13  1  0  0  0  0 
  9 14  1  0  0  0  0 
 13 15  1  0  0  0  0 
 14 16  1  0  0  0  0 
 14 17  1  1  0  0  0 
 16 18  1  0  0  0  0 
 16 19  2  0  0  0  0 
 17 20  3  0  0  0  0 
 18 21  2  0  0  0  0 
 19 22  1  0  0  0  0 
 21 23  1  0  0  0  0 
 21 24  1  0  0  0  0 
 22 24  2  0  0  0  0 
 23 25  1  0  0  0  0 
 25 26  2  0  0  0  0 
 25 27  1  0  0  0  0 
 26 28  1  0  0  0  0 
 27 29  2  0  0  0  0 
 28 30  2  0  0  0  0 
 29 30  1  0  0  0  0 
M  END
> <Name>
Benzeneacetic acid, 4-chloro-alpha-(1-methylethyl)-, cyano (3-phenoxyphenyl)methyl ester, (S-(R*,R*))-

> <Source>
DSSTox2DMolFile

> <Tox>
9.261

> <CAS>
66230-04-4

$$$$

  CDK

 23 24  0  0  0  0  0  0  0  0999 V2000
    2.2909   -5.9435    0.0000 C   0  0  0  0  0  0  0  0  0  0  0  0
    2.2909   -7.2684    0.0000 C   0  0  0  0  0  0  0  0  0  0  0  0
    3.4594   -5.2903    0.0000 C   0  0  0  0  0  0  0  0  0  0  0  0
    1.1685   -5.2903    0.0000 C   0  0  0  0  0  0  0  0  0  0  0  0
    1.1685   -7.9584    0.0000 C   0  0  0  0  0  0  0  0  0  0  0  0
    3.4594   -7.9952    0.0000 C   0  0  0  0  0  0  0  0  0  0  0  0
    4.6094   -5.9803    0.0000 N   0  0  0  0  0  0  0  0  0  0  0  0
    3.4594   -4.0022    0.0000 O   0  0  0  0  0  0  0  0  0  0  0  0
    0.0000   -5.9803    0.0000 C   0  0  0  0  0  0  0  0  0  0  0  0
    0.0000   -7.2684    0.0000 C   0  0  0  0  0  0  0  0  0  0  0  0
    4.6094   -8.6669    0.0000 F   0  0  0  0  0  0  0  0  0  0  0  0
    4.1678   -6.8176    0.0000 F   0  0  0  0  0  0  0  0  0  0  0  0
    2.7601   -9.1453    0.0000 F   0  0  0  0  0  0  0  0  0  0  0  0
    5.7779   -5.2903    0.0000 C   0  0  0  0  0  0  0  0  0  0  0  0
    5.7779   -3.9654    0.0000 C   0  0  0  0  0  0  0  0  0  0  0  0
    6.9096   -5.9803    0.0000 C   0  0  0  0  0  0  0  0  0  0  0  0
    6.9096   -3.3122    0.0000 C   0  0  0  0  0  0  0  0  0  0  0  0
    8.0596   -5.2903    0.0000 C   0  0  0  0  0  0  0  0  0  0  0  0
    8.0596   -4.0022    0.0000 C   0  0  0  0  0  0  0  0  0  0  0  0
    6.9096   -1.9689    0.0000 O   0  0  0  0  0  0  0  0  0  0  0  0
    8.0596   -1.3157    0.0000 C   0  0  0  0  0  0  0  0  0  0  0  0
    8.0596   -0.0000    0.0000 C   0  0  0  0  0  0  0  0  0  0  0  0
    9.2005   -1.9689    0.0000 C   0  0  0  0  0  0  0  0  0  0  0  0
  1  2  2  0  0  0  0 
  1  3  1  0  0  0  0 
  1  4  1  0  0  0  0 
  2  5  1  0  0  0  0 
  2  6  1  0  0  0  0 
  3  7  1  0  0  0  0 
  3  8  2  0  0  0  0 
  4  9  2  0  0  0  0 
  5 10  2  0  0  0  0 
  6 11  1  0  0  0  0 
  6 12  1  0  0  0  0 
  6 13  1  0  0  0  0 
  7 14  1  0  0  0  0 
  9 10  1  0  0  0  0 
 14 15  1  0  0  0  0 
 14 16  2  0  0  0  0 
 15 17  2  0  0  0  0 
 16 18  1  0  0  0  0 
 17 19  1  0  0  0  0 
 17 20  1  0  0  0  0 
 18 19  2  0  0  0  0 
 20 21  1  0  0  0  0 
 21 22  1  0  0  0  0 
 21 23  1  0  0  0  0 
M  END
> <Name>
Benzamide, N-(3-(1-methylethoxy)phenyl)-2-(trifluoromethyl)-

> <Source>
DSSTox2DMolFile

> <Tox>
4.828

> <CAS>
66332-96-5

$$$$

  CDK

 25 27  0  0  0  0  0  0  0  0999 V2000
    9.5015   -8.2449    0.0000 C   0  0  0  0  0  0  0  0  0  0  0  0
    8.8348   -7.0909    0.0000 C   0  0  0  0  0  0  0  0  0  0  0  0
   10.8351   -8.2449    0.0000 O   0  0  0  0  0  0  0  0  0  0  0  0
    8.8348   -9.3861    0.0000 O   0  0  0  0  0  0  0  0  0  0  0  0
    7.5012   -7.0909    0.0000 C   0  0  0  0  0  0  0  0  0  0  0  0
    9.5015   -5.9369    0.0000 O   0  0  0  0  0  0  0  0  0  0  0  0
   11.4890   -9.3861    0.0000 C   0  0  0  0  0  0  0  0  0  0  0  0
    8.8348   -4.7828    0.0000 C   0  0  0  0  0  0  0  0  0  0  0  0
   12.8226   -9.3861    0.0000 C   0  0  0  0  0  0  0  0  0  0  0  0
    7.5012   -4.7828    0.0000 C   0  0  0  0  0  0  0  0  0  0  0  0
    9.5015   -3.6288    0.0000 C   0  0  0  0  0  0  0  0  0  0  0  0
    6.8473   -3.6288    0.0000 C   0  0  0  0  0  0  0  0  0  0  0  0
    8.8348   -2.4748    0.0000 C   0  0  0  0  0  0  0  0  0  0  0  0
    7.5012   -2.4748    0.0000 C   0  0  0  0  0  0  0  0  0  0  0  0
    6.8473   -1.3207    0.0000 O   0  0  0  0  0  0  0  0  0  0  0  0
    5.5137   -1.3207    0.0000 C   0  0  0  0  0  0  0  0  0  0  0  0
    4.7315   -0.2565    0.0000 N   0  0  0  0  0  0  0  0  0  0  0  0
    4.7315   -2.3978    0.0000 O   0  0  0  0  0  0  0  0  0  0  0  0
    3.4621   -0.6668    0.0000 C   0  0  0  0  0  0  0  0  0  0  0  0
    3.4621   -2.0003    0.0000 C   0  0  0  0  0  0  0  0  0  0  0  0
    2.3081   -0.0000    0.0000 C   0  0  0  0  0  0  0  0  0  0  0  0
    2.3081   -2.6543    0.0000 C   0  0  0  0  0  0  0  0  0  0  0  0
    1.1540   -0.6668    0.0000 C   0  0  0  0  0  0  0  0  0  0  0  0
    1.1540   -2.0003    0.0000 C   0  0  0  0  0  0  0  0  0  0  0  0
    0.0000   -2.6543    0.0000 Cl  0  0  0  0  0  0  0  0  0  0  0  0
  1  2  1  0  0  0  0 
  1  3  1  0  0  0  0 
  1  4  2  0  0  0  0 
  2  5  1  0  0  0  0 
  2  6  1  0  0  0  0 
  3  7  1  0  0  0  0 
  6  8  1  0  0  0  0 
  7  9  1  0  0  0  0 
  8 10  2  0  0  0  0 
  8 11  1  0  0  0  0 
 10 12  1  0  0  0  0 
 11 13  2  0  0  0  0 
 12 14  2  0  0  0  0 
 13 14  1  0  0  0  0 
 14 15  1  0  0  0  0 
 15 16  1  0  0  0  0 
 17 16  2  0  0  0  0 
 16 18  1  0  0  0  0 
 17 19  1  0  0  0  0 
 18 20  1  0  0  0  0 
 19 20  2  0  0  0  0 
 19 21  1  0  0  0  0 
 20 22  1  0  0  0  0 
 23 21  2  0  0  0  0 
 22 24  2  0  0  0  0 
 24 23  1  0  0  0  0 
 24 25  1  0  0  0  0 
M  END
> <Name>
Propanoic acid, 2-(4-((6-chloro-2-benzoxazolyl)oxy)phenoxy)-, ethyl ester, (+-)-

> <Source>
DSSTox2DMolFile

> <Tox>
4.706

> <CAS>
66441-23-4

$$$$

  CDK

 29 31  0  0  0  0  0  0  0  0999 V2000
    4.1830   -1.0416    0.0000 C   0  0  0  0  0  0  0  0  0  0  0  0
    3.4886   -2.2320    0.0000 C   0  0  0  0  0  0  0  0  0  0  0  0
    4.8278   -2.2320    0.0000 C   0  0  0  0  0  0  0  0  0  0  0  0
    4.8278   -0.0000    0.0000 C   0  0  0  0  0  0  0  0  0  0  0  0
    3.6374   -0.0000    0.0000 C   0  0  0  0  0  0  0  0  0  0  0  0
    2.3478   -2.8934    0.0000 C   0  0  0  0  0  0  0  0  0  0  0  0
    6.0348   -2.8934    0.0000 C   0  0  0  0  0  0  0  0  0  0  0  0
    1.2070   -2.2320    0.0000 C   0  0  0  0  0  0  0  0  0  0  0  0
    7.2087   -2.2320    0.0000 O   0  0  0  0  0  0  0  0  0  0  0  0
    6.0348   -4.1830    0.0000 O   0  0  0  0  0  0  0  0  0  0  0  0
    1.2070   -0.8763    0.0000 Cl  0  0  0  0  0  0  0  0  0  0  0  0
    0.0000   -2.8438    0.0000 Cl  0  0  0  0  0  0  0  0  0  0  0  0
    8.3495   -2.8934    0.0000 C   0  0  0  0  0  0  0  0  0  0  0  0
    9.5234   -2.2320    0.0000 C   0  0  0  0  0  0  0  0  0  0  0  0
    8.3495   -4.1830    0.0000 C   0  0  0  0  0  0  0  0  0  0  0  0
   10.6642   -2.9430    0.0000 C   0  0  0  0  0  0  0  0  0  0  0  0
    9.5234   -0.9259    0.0000 C   0  0  0  0  0  0  0  0  0  0  0  0
    8.3495   -5.4230    0.0000 N   0  0  0  0  0  0  0  0  0  0  0  0
   11.8381   -2.2486    0.0000 C   0  0  0  0  0  0  0  0  0  0  0  0
   10.6642   -0.2149    0.0000 C   0  0  0  0  0  0  0  0  0  0  0  0
   13.0285   -2.9099    0.0000 O   0  0  0  0  0  0  0  0  0  0  0  0
   11.8381   -0.9259    0.0000 C   0  0  0  0  0  0  0  0  0  0  0  0
   14.2024   -2.2320    0.0000 C   0  0  0  0  0  0  0  0  0  0  0  0
   13.0616   -0.2149    0.0000 F   0  0  0  0  0  0  0  0  0  0  0  0
   14.2024   -0.9259    0.0000 C   0  0  0  0  0  0  0  0  0  0  0  0
   15.3432   -2.9099    0.0000 C   0  0  0  0  0  0  0  0  0  0  0  0
   15.2936   -0.2645    0.0000 C   0  0  0  0  0  0  0  0  0  0  0  0
   16.5336   -2.2486    0.0000 C   0  0  0  0  0  0  0  0  0  0  0  0
   16.5336   -0.8928    0.0000 C   0  0  0  0  0  0  0  0  0  0  0  0
  1  2  1  0  0  0  0 
  1  3  1  0  0  0  0 
  1  4  1  0  0  0  0 
  1  5  1  0  0  0  0 
  2  6  1  0  0  0  0 
  2  3  1  0  0  0  0 
  3  7  1  0  0  0  0 
  6  8  2  0  0  0  0 
  7  9  1  0  0  0  0 
  7 10  2  0  0  0  0 
  8 11  1  0  0  0  0 
  8 12  1  0  0  0  0 
  9 13  1  0  0  0  0 
 14 13  1  0  0  0  0 
 13 15  1  0  0  0  0 
 14 16  1  0  0  0  0 
 14 17  2  0  0  0  0 
 18 15  3  0  0  0  0 
 19 16  2  0  0  0  0 
 17 20  1  0  0  0  0 
 19 21  1  0  0  0  0 
 19 22  1  0  0  0  0 
 22 20  2  0  0  0  0 
 21 23  1  0  0  0  0 
 22 24  1  0  0  0  0 
 23 25  1  0  0  0  0 
 23 26  2  0  0  0  0 
 25 27  2  0  0  0  0 
 26 28  1  0  0  0  0 
 27 29  1  0  0  0  0 
 28 29  2  0  0  0  0 
M  END
> <Name>
Cyclopropanecarboxylic acid, 2-(2,2-dichlorovinyl)-3,3-dimethyl-, ester with (4-fluoro-3-phenoxyphenyl)hydroxyacetonitrile

> <Source>
DSSTox2DMolFile

> <Tox>
8.604

> <CAS>
68359-37-5

$$$$

  CDK

 17 18  0  0  0  0  0  0  0  0999 V2000
    3.4535   -2.6615    0.0000 C   0  0  0  0  0  0  0  0  0  0  0  0
    2.3023   -1.9984    0.0000 C   0  0  0  0  0  0  0  0  0  0  0  0
    4.6047   -1.9984    0.0000 N   0  0  0  0  0  0  0  0  0  0  0  0
    2.3023   -0.6631    0.0000 C   0  0  0  0  0  0  0  0  0  0  0  0
    1.1512   -2.6615    0.0000 S   0  0  0  0  0  0  0  0  0  0  0  0
    4.6047   -0.6631    0.0000 C   0  0  0  0  0  0  0  0  0  0  0  0
    5.7558   -2.6615    0.0000 C   0  0  0  0  0  0  0  0  0  0  0  0
    3.4535   -0.0000    0.0000 C   0  0  0  0  0  0  0  0  0  0  0  0
    1.8142   -3.8127    0.0000 O   0  0  0  0  0  0  0  0  0  0  0  0
    0.4881   -1.5103    0.0000 O   0  0  0  0  0  0  0  0  0  0  0  0
    0.0000   -3.3246    0.0000 O   0  0  0  0  0  0  0  0  0  0  0  0
    6.9070   -1.9984    0.0000 C   0  0  0  0  0  0  0  0  0  0  0  0
    6.9070   -0.6631    0.0000 C   0  0  0  0  0  0  0  0  0  0  0  0
    8.0581   -2.6615    0.0000 C   0  0  0  0  0  0  0  0  0  0  0  0
    8.0581   -0.0000    0.0000 C   0  0  0  0  0  0  0  0  0  0  0  0
    9.2093   -1.9984    0.0000 C   0  0  0  0  0  0  0  0  0  0  0  0
    9.2093   -0.6631    0.0000 C   0  0  0  0  0  0  0  0  0  0  0  0
  1  2  1  0  0  0  0 
  1  3  2  0  0  0  0 
  2  4  2  0  0  0  0 
  2  5  1  0  0  0  0 
  6  3  1  0  0  0  0 
  3  7  1  0  0  0  0 
  4  8  1  0  0  0  0 
  5  9  2  0  0  0  0 
  5 10  2  0  0  0  0 
  5 11  1  0  0  0  0 
  8  6  2  0  0  0  0 
  7 12  1  0  0  0  0 
 12 13  1  0  0  0  0 
 12 14  2  0  0  0  0 
 13 15  2  0  0  0  0 
 16 14  1  0  0  0  0 
 15 17  1  0  0  0  0 
 17 16  2  0  0  0  0 
M  CHG  1   3   1
M  CHG  1  11  -1
M  END
> <Name>
1-(Benzyl)-3-sulphonatopyridinium

> <Source>
DSSTox2DMolFile

> <Tox>
2.015

> <CAS>
69723-94-0

$$$$

  CDK

 19 20  0  0  0  0  0  0  0  0999 V2000
    3.4551   -3.8121    0.0000 C   0  0  0  0  0  0  0  0  0  0  0  0
    2.3034   -3.1441    0.0000 C   0  0  0  0  0  0  0  0  0  0  0  0
    4.6068   -3.1441    0.0000 C   0  0  0  0  0  0  0  0  0  0  0  0
    2.3034   -1.8197    0.0000 C   0  0  0  0  0  0  0  0  0  0  0  0
    4.6068   -1.8197    0.0000 C   0  0  0  0  0  0  0  0  0  0  0  0
    5.7585   -3.8121    0.0000 O   0  0  0  0  0  0  0  0  0  0  0  0
    1.1517   -1.1517    0.0000 C   0  0  0  0  0  0  0  0  0  0  0  0
    3.4551   -1.1517    0.0000 C   0  0  0  0  0  0  0  0  0  0  0  0
    6.9102   -3.1441    0.0000 C   0  0  0  0  0  0  0  0  0  0  0  0
    0.0000   -0.4837    0.0000 C   0  0  0  0  0  0  0  0  0  0  0  0
    1.8197   -0.0000    0.0000 C   0  0  0  0  0  0  0  0  0  0  0  0
    0.4837   -2.3034    0.0000 C   0  0  0  0  0  0  0  0  0  0  0  0
    6.9102   -1.8197    0.0000 C   0  0  0  0  0  0  0  0  0  0  0  0
    8.0618   -3.8121    0.0000 C   0  0  0  0  0  0  0  0  0  0  0  0
    8.0618   -1.1517    0.0000 C   0  0  0  0  0  0  0  0  0  0  0  0
    9.2135   -3.1441    0.0000 C   0  0  0  0  0  0  0  0  0  0  0  0
    9.2135   -1.8197    0.0000 C   0  0  0  0  0  0  0  0  0  0  0  0
   10.3652   -3.8121    0.0000 C   0  0  0  0  0  0  0  0  0  0  0  0
   11.5169   -3.1441    0.0000 O   0  0  0  0  0  0  0  0  0  0  0  0
  1  2  2  0  0  0  0 
  1  3  1  0  0  0  0 
  2  4  1  0  0  0  0 
  5  3  2  0  0  0  0 
  3  6  1  0  0  0  0 
  4  7  1  0  0  0  0 
  4  8  2  0  0  0  0 
  8  5  1  0  0  0  0 
  6  9  1  0  0  0  0 
  7 10  1  0  0  0  0 
  7 11  1  0  0  0  0 
  7 12  1  0  0  0  0 
  9 13  2  0  0  0  0 
  9 14  1  0  0  0  0 
 13 15  1  0  0  0  0 
 16 14  2  0  0  0  0 
 15 17  2  0  0  0  0 
 17 16  1  0  0  0  0 
 16 18  1  0  0  0  0 
 18 19  2  0  0  0  0 
M  END
> <Name>
3-(4-(tert-Butyl)phenoxy)benzaldehyde

> <Source>
DSSTox2DMolFile

> <Tox>
5.842

> <CAS>
69770-23-6

$$$$

  CDK

 33 35  0  0  0  0  0  0  0  0999 V2000
   10.3632   -9.3154    0.0000 C   0  0  0  0  0  0  0  0  0  0  0  0
   10.3632   -7.9797    0.0000 C   0  0  0  0  0  0  0  0  0  0  0  0
   11.5147   -7.3118    0.0000 C   0  0  0  0  0  0  0  0  0  0  0  0
    9.2117   -7.3118    0.0000 C   0  0  0  0  0  0  0  0  0  0  0  0
    8.0603   -7.9797    0.0000 C   0  0  0  0  0  0  0  0  0  0  0  0
    9.2117   -5.9876    0.0000 C   0  0  0  0  0  0  0  0  0  0  0  0
    8.0603   -9.3154    0.0000 O   0  0  0  0  0  0  0  0  0  0  0  0
    6.9088   -7.3118    0.0000 O   0  0  0  0  0  0  0  0  0  0  0  0
    8.0603   -5.3198    0.0000 C   0  0  0  0  0  0  0  0  0  0  0  0
   10.3632   -5.3198    0.0000 C   0  0  0  0  0  0  0  0  0  0  0  0
    5.7573   -7.9797    0.0000 C   0  0  0  0  0  0  0  0  0  0  0  0
    8.0603   -3.9956    0.0000 C   0  0  0  0  0  0  0  0  0  0  0  0
   10.3632   -3.9956    0.0000 C   0  0  0  0  0  0  0  0  0  0  0  0
    5.7573   -9.3154    0.0000 C   0  0  0  0  0  0  0  0  0  0  0  0
    4.6059   -7.3118    0.0000 C   0  0  0  0  0  0  0  0  0  0  0  0
    9.2117   -3.3277    0.0000 C   0  0  0  0  0  0  0  0  0  0  0  0
    5.7573  -10.6396    0.0000 N   0  0  0  0  0  0  0  0  0  0  0  0
    3.4544   -7.9797    0.0000 C   0  0  0  0  0  0  0  0  0  0  0  0
    4.6059   -5.9876    0.0000 C   0  0  0  0  0  0  0  0  0  0  0  0
    9.2117   -1.9920    0.0000 O   0  0  0  0  0  0  0  0  0  0  0  0
    2.3029   -7.3118    0.0000 C   0  0  0  0  0  0  0  0  0  0  0  0
    3.4544   -5.3198    0.0000 C   0  0  0  0  0  0  0  0  0  0  0  0
   10.3632   -1.3357    0.0000 C   0  0  0  0  0  0  0  0  0  0  0  0
    2.3029   -5.9876    0.0000 C   0  0  0  0  0  0  0  0  0  0  0  0
    3.4544   -3.9956    0.0000 O   0  0  0  0  0  0  0  0  0  0  0  0
   10.3632   -0.0000    0.0000 F   0  0  0  0  0  0  0  0  0  0  0  0
   11.5147   -1.9920    0.0000 F   0  0  0  0  0  0  0  0  0  0  0  0
    2.3029   -3.3277    0.0000 C   0  0  0  0  0  0  0  0  0  0  0  0
    1.1515   -3.9956    0.0000 C   0  0  0  0  0  0  0  0  0  0  0  0
    2.3029   -1.9920    0.0000 C   0  0  0  0  0  0  0  0  0  0  0  0
    0.0000   -3.3277    0.0000 C   0  0  0  0  0  0  0  0  0  0  0  0
    1.1515   -1.3357    0.0000 C   0  0  0  0  0  0  0  0  0  0  0  0
    0.0000   -1.9920    0.0000 C   0  0  0  0  0  0  0  0  0  0  0  0
  1  2  1  0  0  0  0 
  2  3  1  0  0  0  0 
  2  4  1  0  0  0  0 
  4  5  1  0  0  0  0 
  4  6  1  0  0  0  0 
  5  7  2  0  0  0  0 
  5  8  1  0  0  0  0 
  6  9  2  0  0  0  0 
  6 10  1  0  0  0  0 
  8 11  1  0  0  0  0 
  9 12  1  0  0  0  0 
 13 10  2  0  0  0  0 
 11 14  1  0  0  0  0 
 11 15  1  0  0  0  0 
 12 16  2  0  0  0  0 
 16 13  1  0  0  0  0 
 14 17  3  0  0  0  0 
 15 18  2  0  0  0  0 
 15 19  1  0  0  0  0 
 16 20  1  0  0  0  0 
 18 21  1  0  0  0  0 
 22 19  2  0  0  0  0 
 20 23  1  0  0  0  0 
 21 24  2  0  0  0  0 
 24 22  1  0  0  0  0 
 22 25  1  0  0  0  0 
 23 26  1  0  0  0  0 
 23 27  1  0  0  0  0 
 25 28  1  0  0  0  0 
 28 29  2  0  0  0  0 
 28 30  1  0  0  0  0 
 29 31  1  0  0  0  0 
 32 30  2  0  0  0  0 
 31 33  2  0  0  0  0 
 33 32  1  0  0  0  0 
M  END
> <Name>
Benzeneacetic acid, 4-(difluoromethoxy)-alpha-(1-methylethyl)-, cyano(3-phenoxyphenyl)methyl ester

> <Source>
DSSTox2DMolFile

> <Tox>
8.976

> <CAS>
70124-77-5

$$$$

  CDK

 14 14  0  0  0  0  0  0  0  0999 V2000
   -0.2434   -0.5542    0.0477 C   0  0  0  0  0  0  0  0  0  0  0  0
    1.0553    0.0245   -0.0058 C   0  0  0  0  0  0  0  0  0  0  0  0
   -1.3754    0.3068    0.0206 C   0  0  0  0  0  0  0  0  0  0  0  0
   -0.4020   -1.9279    0.2503 N   0  0  0  0  0  0  0  0  0  0  0  0
    1.2154    1.4142   -0.0650 C   0  0  0  0  0  0  0  0  0  0  0  0
    2.2755   -0.8530    0.0000 N   0  0  0  0  0  0  0  0  0  0  0  0
   -1.1849    1.6962   -0.0169 C   0  0  0  0  0  0  0  0  0  0  0  0
   -2.7704   -0.2085    0.0056 N   0  0  0  0  0  0  0  0  0  0  0  0
    0.0841    2.2373   -0.0599 C   0  0  0  0  0  0  0  0  0  0  0  0
    2.5519    2.0625   -0.1402 C   0  0  0  0  0  0  0  0  0  0  0  0
    2.4449   -1.6203   -0.9277 O   0  0  0  0  0  0  0  0  0  0  0  0
    3.0585   -0.7831    0.9217 O   0  0  0  0  0  0  0  0  0  0  0  0
   -3.7062    0.5588    0.0648 O   0  0  0  0  0  0  0  0  0  0  0  0
   -2.9599   -1.4151   -0.0799 O   0  0  0  0  0  0  0  0  0  0  0  0
  1  2  1  0  0  0  0 
  1  3  2  0  0  0  0 
  1  4  1  0  0  0  0 
  2  5  2  0  0  0  0 
  2  6  1  0  0  0  0 
  7  3  1  0  0  0  0 
  3  8  1  0  0  0  0 
  5  9  1  0  0  0  0 
  5 10  1  0  0  0  0 
  6 11  2  0  0  0  0 
  6 12  1  0  0  0  0 
  9  7  2  0  0  0  0 
  8 13  2  0  0  0  0 
  8 14  1  0  0  0  0 
M  CHG  1   6   1
M  CHG  1   8   1
M  CHG  1  12  -1
M  CHG  1  14  -1
M  END
> <Name>
Benzenamine, 2,6-dinitro-3-methyl- (9CI)

> <Source>
DougDB3DMolFile

> <Tox>
4.208

> <CAS>
70343-06-5

$$$$

  CDK

 11 11  0  0  0  0  0  0  0  0999 V2000
    2.6587   -0.0000    0.0000 C   0  0  0  0  0  0  0  0  0  0  0  0
    1.9940   -1.1497    0.0000 C   0  0  0  0  0  0  0  0  0  0  0  0
    2.6587   -2.3054    0.0000 C   0  0  0  0  0  0  0  0  0  0  0  0
    0.6647   -1.1497    0.0000 C   0  0  0  0  0  0  0  0  0  0  0  0
    3.9941   -2.3054    0.0000 N   0  0  0  0  0  0  0  0  0  0  0  0
    1.9940   -3.4551    0.0000 C   0  0  0  0  0  0  0  0  0  0  0  0
    0.0000   -2.3054    0.0000 C   0  0  0  0  0  0  0  0  0  0  0  0
    0.0000   -0.0000    0.0000 Cl  0  0  0  0  0  0  0  0  0  0  0  0
    4.6588   -3.4551    0.0000 C   0  0  0  0  0  0  0  0  0  0  0  0
    0.6647   -3.4551    0.0000 C   0  0  0  0  0  0  0  0  0  0  0  0
    5.9881   -3.4551    0.0000 O   0  0  0  0  0  0  0  0  0  0  0  0
  1  2  1  0  0  0  0 
  2  3  2  0  0  0  0 
  2  4  1  0  0  0  0 
  3  5  1  0  0  0  0 
  3  6  1  0  0  0  0 
  7  4  2  0  0  0  0 
  4  8  1  0  0  0  0 
  5  9  1  0  0  0  0 
  6 10  2  0  0  0  0 
 10  7  1  0  0  0  0 
  9 11  2  0  0  0  0 
M  END
> <Name>
N-(3-chloro-2-methylphenyl)formamide

> <Source>
DSSTox2DMolFile

> <Tox>
3.561

> <CAS>
71862-02-7

$$$$

  CDK

 17 18  0  0  0  0  0  0  0  0999 V2000
    5.7561   -2.6604    0.0000 C   0  0  0  0  0  0  0  0  0  0  0  0
    6.9089   -1.9912    0.0000 C   0  0  0  0  0  0  0  0  0  0  0  0
    5.7561   -3.9906    0.0000 C   0  0  0  0  0  0  0  0  0  0  0  0
    6.9089   -0.6611    0.0000 C   0  0  0  0  0  0  0  0  0  0  0  0
    8.0617   -2.6604    0.0000 C   0  0  0  0  0  0  0  0  0  0  0  0
    6.9089   -4.6516    0.0000 C   0  0  0  0  0  0  0  0  0  0  0  0
    4.6033   -4.6516    0.0000 O   0  0  0  0  0  0  0  0  0  0  0  0
    8.0617   -0.0000    0.0000 O   0  0  0  0  0  0  0  0  0  0  0  0
    8.0617   -3.9906    0.0000 C   0  0  0  0  0  0  0  0  0  0  0  0
    3.4585   -3.9906    0.0000 C   0  0  0  0  0  0  0  0  0  0  0  0
    2.3057   -4.6516    0.0000 C   0  0  0  0  0  0  0  0  0  0  0  0
    3.4585   -2.6604    0.0000 C   0  0  0  0  0  0  0  0  0  0  0  0
    1.1528   -3.9906    0.0000 C   0  0  0  0  0  0  0  0  0  0  0  0
    2.3057   -1.9912    0.0000 C   0  0  0  0  0  0  0  0  0  0  0  0
    0.0000   -4.6516    0.0000 Cl  0  0  0  0  0  0  0  0  0  0  0  0
    1.1528   -2.6604    0.0000 C   0  0  0  0  0  0  0  0  0  0  0  0
    0.0000   -1.9912    0.0000 Cl  0  0  0  0  0  0  0  0  0  0  0  0
  1  2  2  0  0  0  0 
  1  3  1  0  0  0  0 
  2  4  1  0  0  0  0 
  2  5  1  0  0  0  0 
  6  3  2  0  0  0  0 
  3  7  1  0  0  0  0 
  4  8  2  0  0  0  0 
  5  9  2  0  0  0  0 
  9  6  1  0  0  0  0 
  7 10  1  0  0  0  0 
 10 11  2  0  0  0  0 
 10 12  1  0  0  0  0 
 11 13  1  0  0  0  0 
 14 12  2  0  0  0  0 
 13 15  1  0  0  0  0 
 13 16  2  0  0  0  0 
 16 14  1  0  0  0  0 
 16 17  1  0  0  0  0 
M  END
> <Name>
m-(3,4-Dichlorophenoxy)benzaldehyde

> <Source>
DSSTox2DMolFile

> <Tox>
5.950

> <CAS>
79124-76-8

$$$$

  CDK

 24 25  0  0  0  0  0  0  0  0999 V2000
    3.3396   -3.6331    0.0000 N   0  0  0  0  0  0  0  0  0  0  0  0
    2.6549   -2.4873    0.0000 N   0  0  0  0  0  0  0  0  0  0  0  0
    4.6671   -3.6331    0.0000 C   0  0  0  0  0  0  0  0  0  0  0  0
    3.3396   -1.3275    0.0000 C   0  0  0  0  0  0  0  0  0  0  0  0
    1.3275   -2.4873    0.0000 C   0  0  0  0  0  0  0  0  0  0  0  0
    5.3238   -2.4873    0.0000 C   0  0  0  0  0  0  0  0  0  0  0  0
    4.6671   -1.3275    0.0000 C   0  0  0  0  0  0  0  0  0  0  0  0
    2.6549   -0.1817    0.0000 O   0  0  0  0  0  0  0  0  0  0  0  0
    1.3275   -3.8147    0.0000 C   0  0  0  0  0  0  0  0  0  0  0  0
    1.3275   -1.1598    0.0000 C   0  0  0  0  0  0  0  0  0  0  0  0
    0.0000   -2.4873    0.0000 C   0  0  0  0  0  0  0  0  0  0  0  0
    6.6513   -2.4873    0.0000 S   0  0  0  0  0  0  0  0  0  0  0  0
    5.3238   -0.1817    0.0000 Cl  0  0  0  0  0  0  0  0  0  0  0  0
    7.3220   -1.3275    0.0000 C   0  0  0  0  0  0  0  0  0  0  0  0
    8.6495   -1.3275    0.0000 C   0  0  0  0  0  0  0  0  0  0  0  0
    9.3062   -0.1817    0.0000 C   0  0  0  0  0  0  0  0  0  0  0  0
    9.3062   -2.4873    0.0000 C   0  0  0  0  0  0  0  0  0  0  0  0
   10.6337   -0.1817    0.0000 C   0  0  0  0  0  0  0  0  0  0  0  0
   10.6337   -2.4873    0.0000 C   0  0  0  0  0  0  0  0  0  0  0  0
   11.3184   -1.3275    0.0000 C   0  0  0  0  0  0  0  0  0  0  0  0
   12.6459   -1.3275    0.0000 C   0  0  0  0  0  0  0  0  0  0  0  0
   12.6459   -0.0000    0.0000 C   0  0  0  0  0  0  0  0  0  0  0  0
   12.6459   -2.6549    0.0000 C   0  0  0  0  0  0  0  0  0  0  0  0
   13.9733   -1.3275    0.0000 C   0  0  0  0  0  0  0  0  0  0  0  0
  1  2  1  0  0  0  0 
  1  3  2  0  0  0  0 
  2  4  1  0  0  0  0 
  2  5  1  0  0  0  0 
  3  6  1  0  0  0  0 
  4  7  1  0  0  0  0 
  4  8  2  0  0  0  0 
  5  9  1  0  0  0  0 
  5 10  1  0  0  0  0 
  5 11  1  0  0  0  0 
  7  6  2  0  0  0  0 
  6 12  1  0  0  0  0 
  7 13  1  0  0  0  0 
 12 14  1  0  0  0  0 
 14 15  1  0  0  0  0 
 15 16  2  0  0  0  0 
 15 17  1  0  0  0  0 
 16 18  1  0  0  0  0 
 17 19  2  0  0  0  0 
 18 20  2  0  0  0  0 
 19 20  1  0  0  0  0 
 20 21  1  0  0  0  0 
 21 22  1  0  0  0  0 
 21 23  1  0  0  0  0 
 21 24  1  0  0  0  0 
M  END
> <Name>
3(2H)-Pyridazinone, 4-chloro-2-(1,1-dimethylethyl)-5-(((4-(1,1-dimethylethyl)phenyl)methyl)thio)-

> <Source>
DSSTox2DMolFile

> <Tox>
8.200

> <CAS>
96489-71-3

$$$$
