
  CDK

 20 23  0  0  0  0  0  0  0  0999 V2000
    6.9343   -1.7134    0.0000 C   0  0  0  0  0  0  0  0  0  0  0  0
    6.9343   -3.0321    0.0000 C   0  0  0  0  0  0  0  0  0  0  0  0
    5.7681   -1.0227    0.0000 C   0  0  0  0  0  0  0  0  0  0  0  0
    8.1992   -1.2828    0.0000 C   0  0  0  0  0  0  0  0  0  0  0  0
    6.9343   -0.3588    0.0000 C   0  0  0  0  0  0  0  0  0  0  0  0
    5.7681   -3.6780    0.0000 C   0  0  0  0  0  0  0  0  0  0  0  0
    8.1992   -3.4178    0.0000 C   0  0  0  0  0  0  0  0  0  0  0  0
    4.6289   -1.7134    0.0000 C   0  0  0  0  0  0  0  0  0  0  0  0
    8.9706   -2.3683    0.0000 C   0  0  0  0  0  0  0  0  0  0  0  0
    8.5401   -0.0000    0.0000 O   0  0  0  0  0  0  0  0  0  0  0  0
    5.7681   -5.0146    0.0000 C   0  0  0  0  0  0  0  0  0  0  0  0
    4.6289   -3.0321    0.0000 C   0  0  0  0  0  0  0  0  0  0  0  0
    4.6289   -5.6874    0.0000 C   0  0  0  0  0  0  0  0  0  0  0  0
    3.4806   -3.6780    0.0000 C   0  0  0  0  0  0  0  0  0  0  0  0
    3.4806   -5.0146    0.0000 C   0  0  0  0  0  0  0  0  0  0  0  0
    2.3593   -3.0321    0.0000 C   0  0  0  0  0  0  0  0  0  0  0  0
    2.3593   -5.6874    0.0000 C   0  0  0  0  0  0  0  0  0  0  0  0
    1.1931   -3.6780    0.0000 C   0  0  0  0  0  0  0  0  0  0  0  0
    1.1931   -5.0146    0.0000 C   0  0  0  0  0  0  0  0  0  0  0  0
    0.0000   -5.7143    0.0000 O   0  0  0  0  0  0  0  0  0  0  0  0
  1  2  1  0  0  0  0 
  1  3  1  0  0  0  0 
  1  4  1  0  0  0  0 
  1  5  1  1  0  0  0 
  2  6  1  0  0  0  0 
  2  7  1  0  0  0  0 
  3  8  1  0  0  0  0 
  4  9  1  0  0  0  0 
  4 10  1  1  0  0  0 
  6 11  1  0  0  0  0 
  6 12  1  0  0  0  0 
  7  9  1  0  0  0  0 
 12  8  1  0  0  0  0 
 11 13  1  0  0  0  0 
 12 14  1  0  0  0  0 
 15 13  1  0  0  0  0 
 14 15  1  0  0  0  0 
 14 16  2  0  0  0  0 
 15 17  2  0  0  0  0 
 16 18  1  0  0  0  0 
 17 19  1  0  0  0  0 
 19 18  2  0  0  0  0 
 19 20  1  0  0  0  0 
M  END
> <Name>
Estra-1,3,5(10)-triene-3,17-diol, (17beta)-

> <Source>
DSSTox2DMolFile

> <Tox>
4.962

> <CAS>
50-28-2

$$$$

  CDK

 24 25  0  0  0  0  0  0  0  0999 V2000
   16.1183   -0.0000    0.0000 C   0  0  0  0  0  0  0  0  0  0  0  0
   16.1183   -1.3346    0.0000 C   0  0  0  0  0  0  0  0  0  0  0  0
   14.9718   -2.0020    0.0000 C   0  0  0  0  0  0  0  0  0  0  0  0
   14.9718   -3.3195    0.0000 C   0  0  0  0  0  0  0  0  0  0  0  0
   16.1183   -3.9868    0.0000 C   0  0  0  0  0  0  0  0  0  0  0  0
   13.8254   -3.9868    0.0000 C   0  0  0  0  0  0  0  0  0  0  0  0
   16.1183   -5.3214    0.0000 C   0  0  0  0  0  0  0  0  0  0  0  0
   13.8254   -5.3214    0.0000 C   0  0  0  0  0  0  0  0  0  0  0  0
   12.6619   -3.3195    0.0000 C   0  0  0  0  0  0  0  0  0  0  0  0
   14.9718   -5.9887    0.0000 C   0  0  0  0  0  0  0  0  0  0  0  0
   17.1107   -6.2112    0.0000 O   0  0  0  0  0  0  0  0  0  0  0  0
   11.5155   -3.9868    0.0000 O   0  0  0  0  0  0  0  0  0  0  0  0
   15.2456   -7.2892    0.0000 O   0  0  0  0  0  0  0  0  0  0  0  0
   16.5631   -7.4260    0.0000 C   0  0  0  0  0  0  0  0  0  0  0  0
   10.3691   -3.3195    0.0000 C   0  0  0  0  0  0  0  0  0  0  0  0
    9.2055   -3.9868    0.0000 C   0  0  0  0  0  0  0  0  0  0  0  0
    8.0591   -3.3195    0.0000 O   0  0  0  0  0  0  0  0  0  0  0  0
    6.9127   -3.9868    0.0000 C   0  0  0  0  0  0  0  0  0  0  0  0
    5.7663   -3.3195    0.0000 C   0  0  0  0  0  0  0  0  0  0  0  0
    4.6028   -3.9868    0.0000 O   0  0  0  0  0  0  0  0  0  0  0  0
    3.4564   -3.3195    0.0000 C   0  0  0  0  0  0  0  0  0  0  0  0
    2.3099   -3.9868    0.0000 C   0  0  0  0  0  0  0  0  0  0  0  0
    1.1464   -3.3195    0.0000 C   0  0  0  0  0  0  0  0  0  0  0  0
    0.0000   -3.9868    0.0000 C   0  0  0  0  0  0  0  0  0  0  0  0
  1  2  1  0  0  0  0 
  2  3  1  0  0  0  0 
  3  4  1  0  0  0  0 
  4  5  2  0  0  0  0 
  4  6  1  0  0  0  0 
  5  7  1  0  0  0  0 
  8  6  2  0  0  0  0 
  6  9  1  0  0  0  0 
  7 10  2  0  0  0  0 
  7 11  1  0  0  0  0 
 10  8  1  0  0  0  0 
  9 12  1  0  0  0  0 
 10 13  1  0  0  0  0 
 14 11  1  0  0  0  0 
 12 15  1  0  0  0  0 
 13 14  1  0  0  0  0 
 15 16  1  0  0  0  0 
 16 17  1  0  0  0  0 
 17 18  1  0  0  0  0 
 18 19  1  0  0  0  0 
 19 20  1  0  0  0  0 
 20 21  1  0  0  0  0 
 21 22  1  0  0  0  0 
 22 23  1  0  0  0  0 
 23 24  1  0  0  0  0 
M  END
> <Name>
Toluene, alpha-(2-(2-butoxyethoxy)ethoxy)-4,5-(methylenedioxy)-2-propyl-

> <Source>
DSSTox2DMolFile

> <Tox>
5.291

> <CAS>
51-03-6

$$$$

  CDK

 17 17  0  0  0  0  0  0  0  0999 V2000
    2.4080    1.1825   -0.3182 C   0  0  0  0  0  0  0  0  0  0  0  0
    0.9886    0.7372   -0.2672 C   0  0  0  0  0  0  0  0  0  0  0  0
    3.0621    1.4629   -1.3014 O   0  0  0  0  0  0  0  0  0  0  0  0
    2.9697    1.2950    0.9244 O   0  0  0  0  0  0  0  0  0  0  0  0
    0.6372   -0.6191   -0.1401 C   0  0  0  0  0  0  0  0  0  0  0  0
   -0.0196    1.6924   -0.3733 C   0  0  0  0  0  0  0  0  0  0  0  0
    4.3174    1.7025    1.0193 C   0  0  0  0  0  0  0  0  0  0  0  0
   -0.7079   -0.9987   -0.1116 C   0  0  0  0  0  0  0  0  0  0  0  0
    1.6908   -1.5025   -0.0997 O   0  0  0  0  0  0  0  0  0  0  0  0
   -1.3598    1.3275   -0.3462 C   0  0  0  0  0  0  0  0  0  0  0  0
   -1.7092   -0.0211   -0.2086 C   0  0  0  0  0  0  0  0  0  0  0  0
    1.4143   -2.8178    0.3771 C   0  0  0  0  0  0  0  0  0  0  0  0
   -3.0662   -0.4754   -0.2177 N   0  0  0  0  0  0  0  0  0  0  0  0
    2.5598   -3.6987   -0.0815 C   0  0  0  0  0  0  0  0  0  0  0  0
   -4.2302    0.2262    0.1957 C   0  0  0  0  0  0  0  0  0  0  0  0
   -5.5144   -0.5677    0.1513 C   0  0  0  0  0  0  0  0  0  0  0  0
   -4.1714    1.3948    0.5417 O   0  0  0  0  0  0  0  0  0  0  0  0
  1  2  1  0  0  0  0 
  1  3  2  0  0  0  0 
  1  4  1  0  0  0  0 
  2  5  1  0  0  0  0 
  2  6  2  0  0  0  0 
  4  7  1  0  0  0  0 
  5  8  2  0  0  0  0 
  5  9  1  0  0  0  0 
 10  6  1  0  0  0  0 
  8 11  1  0  0  0  0 
  9 12  1  0  0  0  0 
 11 10  2  0  0  0  0 
 11 13  1  0  0  0  0 
 12 14  1  0  0  0  0 
 15 13  1  0  0  0  0 
 15 16  1  0  0  0  0 
 15 17  2  0  0  0  0 
M  END
> <Name>
Benzoic acid, 4-(acetylamino)-2-ethoxy-, methyl ester

> <Source>
DougDB3DMolFile

> <Tox>
3.074

> <CAS>
59-06-3

$$$$

  CDK

  9  9  0  0  0  0  0  0  0  0999 V2000
    4.6082   -2.6589    0.0000 O   0  0  0  0  0  0  0  0  0  0  0  0
    3.4561   -1.9953    0.0000 C   0  0  0  0  0  0  0  0  0  0  0  0
    2.3041   -2.6589    0.0000 C   0  0  0  0  0  0  0  0  0  0  0  0
    3.4561   -0.6636    0.0000 C   0  0  0  0  0  0  0  0  0  0  0  0
    1.1520   -1.9953    0.0000 C   0  0  0  0  0  0  0  0  0  0  0  0
    2.3041   -0.0000    0.0000 C   0  0  0  0  0  0  0  0  0  0  0  0
    0.0000   -2.6589    0.0000 C   0  0  0  0  0  0  0  0  0  0  0  0
    1.1520   -0.6636    0.0000 C   0  0  0  0  0  0  0  0  0  0  0  0
    0.0000   -0.0000    0.0000 Cl  0  0  0  0  0  0  0  0  0  0  0  0
  1  2  1  0  0  0  0 
  2  3  2  0  0  0  0 
  2  4  1  0  0  0  0 
  3  5  1  0  0  0  0 
  6  4  2  0  0  0  0 
  5  7  1  0  0  0  0 
  5  8  2  0  0  0  0 
  8  6  1  0  0  0  0 
  8  9  1  0  0  0  0 
M  END
> <Name>
Phenol, 4-chloro-3-methyl-

> <Source>
DSSTox2DMolFile

> <Tox>
4.853

> <CAS>
59-50-7

$$$$

  CDK

  4  3  0  0  0  0  0  0  0  0999 V2000
    1.9950   -0.0000    0.0000 C   0  0  0  0  0  0  0  0  0  0  0  0
    1.3292   -1.1518    0.0000 C   0  0  0  0  0  0  0  0  0  0  0  0
    1.9950   -2.3037    0.0000 S   0  0  0  0  0  0  0  0  0  0  0  0
    0.0000   -1.1518    0.0000 N   0  0  0  0  0  0  0  0  0  0  0  0
  1  2  1  0  0  0  0 
  2  3  2  0  0  0  0 
  2  4  1  0  0  0  0 
M  END
> <Name>
Acetamide, thio- (VAN) (8CI)

> <Source>
DSSTox2DMolFile

> <Tox>
3.635

> <CAS>
62-55-5

$$$$

  CDK

  3  2  0  0  0  0  0  0  0  0999 V2000
    2.3030   -0.6656    0.0000 C   0  0  0  0  0  0  0  0  0  0  0  0
    1.1515   -0.0000    0.0000 C   0  0  0  0  0  0  0  0  0  0  0  0
    0.0000   -0.6656    0.0000 O   0  0  0  0  0  0  0  0  0  0  0  0
  1  2  1  0  0  0  0 
  2  3  1  0  0  0  0 
M  END
> <Name>
Ethyl alcohol

> <Source>
DSSTox2DMolFile

> <Tox>
0.587

> <CAS>
64-17-5

$$$$

  CDK

  7  6  0  0  0  0  0  0  0  0999 V2000
    0.0000   -0.6638    0.0000 C   0  0  0  0  0  0  0  0  0  0  0  0
    1.1548   -0.0000    0.0000 C   0  0  0  0  0  0  0  0  0  0  0  0
    2.3027   -0.6638    0.0000 C   0  0  0  0  0  0  0  0  0  0  0  0
    3.4575   -0.0000    0.0000 C   0  0  0  0  0  0  0  0  0  0  0  0
    4.6122   -0.6638    0.0000 C   0  0  0  0  0  0  0  0  0  0  0  0
    5.7601   -0.0000    0.0000 C   0  0  0  0  0  0  0  0  0  0  0  0
    6.9149   -0.6638    0.0000 O   0  0  0  0  0  0  0  0  0  0  0  0
  1  2  1  0  0  0  0 
  2  3  1  0  0  0  0 
  3  4  1  0  0  0  0 
  4  5  1  0  0  0  0 
  5  6  1  0  0  0  0 
  6  7  2  0  0  0  0 
M  END
> <Name>
Hexaldehyde

> <Source>
DSSTox2DMolFile

> <Tox>
4.039

> <CAS>
66-25-1

$$$$

  CDK

  4  3  0  0  0  0  0  0  0  0999 V2000
    1.9950   -0.0000    0.0000 C   0  0  0  0  0  0  0  0  0  0  0  0
    1.3292   -1.1518    0.0000 S   0  0  0  0  0  0  0  0  0  0  0  0
    1.9950   -2.3037    0.0000 O   0  0  0  0  0  0  0  0  0  0  0  0
    0.0000   -1.1518    0.0000 C   0  0  0  0  0  0  0  0  0  0  0  0
  1  2  1  0  0  0  0 
  2  3  2  0  0  0  0 
  2  4  1  0  0  0  0 
M  END
> <Name>
Sulfinylbis-methane (9CI)

> <Source>
DSSTox2DMolFile

> <Tox>
0.495

> <CAS>
67-68-5

$$$$

  CDK

  5  4  0  0  0  0  0  0  0  0999 V2000
    3.4567   -1.9945    0.0000 C   0  0  0  0  0  0  0  0  0  0  0  0
    2.3056   -1.3308    0.0000 N   0  0  0  0  0  0  0  0  0  0  0  0
    1.1511   -1.9945    0.0000 C   0  0  0  0  0  0  0  0  0  0  0  0
    2.3056   -0.0000    0.0000 C   0  0  0  0  0  0  0  0  0  0  0  0
    0.0000   -1.3308    0.0000 O   0  0  0  0  0  0  0  0  0  0  0  0
  1  2  1  0  0  0  0 
  2  3  1  0  0  0  0 
  2  4  1  0  0  0  0 
  3  5  2  0  0  0  0 
M  END
> <Name>
Formamide, N,N-dimethyl-

> <Source>
DSSTox2DMolFile

> <Tox>
0.706

> <CAS>
68-12-2

$$$$

  CDK

  6  6  0  0  0  0  0  0  0  0999 V2000
    2.3036   -1.9950    0.0000 C   0  0  0  0  0  0  0  0  0  0  0  0
    1.1518   -2.6600    0.0000 C   0  0  0  0  0  0  0  0  0  0  0  0
    2.3036   -0.6650    0.0000 C   0  0  0  0  0  0  0  0  0  0  0  0
    0.0000   -1.9950    0.0000 C   0  0  0  0  0  0  0  0  0  0  0  0
    1.1518   -0.0000    0.0000 C   0  0  0  0  0  0  0  0  0  0  0  0
    0.0000   -0.6650    0.0000 C   0  0  0  0  0  0  0  0  0  0  0  0
  1  2  2  0  0  0  0 
  1  3  1  0  0  0  0 
  2  4  1  0  0  0  0 
  5  3  2  0  0  0  0 
  4  6  2  0  0  0  0 
  6  5  1  0  0  0  0 
M  END
> <Name>
Benzene, pure

> <Source>
DSSTox2DMolFile

> <Tox>
2.467

> <CAS>
71-43-2

$$$$

  CDK

  2  1  0  0  0  0  0  0  0  0999 V2000
    0.0000   -0.0000    0.0000 C   0  0  0  0  0  0  0  0  0  0  0  0
    1.3300   -0.0000    0.0000 Br  0  0  0  0  0  0  0  0  0  0  0  0
  1  2  1  0  0  0  0 
M  END
> <Name>
Methane, bromo-

> <Source>
DSSTox2DMolFile

> <Tox>
4.635

> <CAS>
74-83-9

$$$$

  CDK

  3  2  0  0  0  0  0  0  0  0999 V2000
    2.3030   -0.6656    0.0000 Cl  0  0  0  0  0  0  0  0  0  0  0  0
    1.1515   -0.0000    0.0000 C   0  0  0  0  0  0  0  0  0  0  0  0
    0.0000   -0.6656    0.0000 Cl  0  0  0  0  0  0  0  0  0  0  0  0
  1  2  1  0  0  0  0 
  2  3  1  0  0  0  0 
M  END
> <Name>
Methane, dichloro-

> <Source>
DSSTox2DMolFile

> <Tox>
2.587

> <CAS>
75-09-2

$$$$

  CDK

  4  3  0  0  0  0  0  0  0  0999 V2000
    1.9950   -0.0000    0.0000 C   0  0  0  0  0  0  0  0  0  0  0  0
    1.3292   -1.1518    0.0000 C   0  0  0  0  0  0  0  0  0  0  0  0
    1.9950   -2.3037    0.0000 Cl  0  0  0  0  0  0  0  0  0  0  0  0
    0.0000   -1.1518    0.0000 Cl  0  0  0  0  0  0  0  0  0  0  0  0
  1  2  2  0  0  0  0 
  2  3  1  0  0  0  0 
  2  4  1  0  0  0  0 
M  END
> <Name>
1,1-Dichloroethene (9CI)

> <Source>
DSSTox2DMolFile

> <Tox>
3.506

> <CAS>
75-35-4

$$$$

  CDK

  7  6  0  0  0  0  0  0  0  0999 V2000
    2.6608   -1.9956    0.0000 Cl  0  0  0  0  0  0  0  0  0  0  0  0
    1.3304   -1.9956    0.0000 C   0  0  0  0  0  0  0  0  0  0  0  0
    1.3304   -0.6652    0.0000 C   0  0  0  0  0  0  0  0  0  0  0  0
    1.3304   -3.3260    0.0000 Cl  0  0  0  0  0  0  0  0  0  0  0  0
    0.0000   -1.9956    0.0000 Cl  0  0  0  0  0  0  0  0  0  0  0  0
    0.1796   -0.0000    0.0000 Cl  0  0  0  0  0  0  0  0  0  0  0  0
    2.4812   -0.0000    0.0000 Cl  0  0  0  0  0  0  0  0  0  0  0  0
  1  2  1  0  0  0  0 
  2  3  1  0  0  0  0 
  2  4  1  0  0  0  0 
  2  5  1  0  0  0  0 
  3  6  1  0  0  0  0 
  3  7  1  0  0  0  0 
M  END
> <Name>
Ethane, pentachloro-

> <Source>
DSSTox2DMolFile

> <Tox>
4.403

> <CAS>
76-01-7

$$$$

  CDK

 11 11  0  0  0  0  0  0  0  0999 V2000
    3.4265   -0.1676    0.0000 Cl  0  0  0  0  0  0  0  0  0  0  0  0
    3.2868   -1.4898    0.0000 C   0  0  0  0  0  0  0  0  0  0  0  0
    3.4265   -2.8119    0.0000 C   0  0  0  0  0  0  0  0  0  0  0  0
    1.9879   -1.2151    0.0000 C   0  0  0  0  0  0  0  0  0  0  0  0
    4.6183   -1.4898    0.0000 Cl  0  0  0  0  0  0  0  0  0  0  0  0
    2.2114   -3.3566    0.0000 C   0  0  0  0  0  0  0  0  0  0  0  0
    4.5810   -3.4777    0.0000 Cl  0  0  0  0  0  0  0  0  0  0  0  0
    1.3222   -2.3650    0.0000 C   0  0  0  0  0  0  0  0  0  0  0  0
    1.4479   -0.0000    0.0000 Cl  0  0  0  0  0  0  0  0  0  0  0  0
    1.9367   -4.6555    0.0000 Cl  0  0  0  0  0  0  0  0  0  0  0  0
    0.0000   -2.5047    0.0000 Cl  0  0  0  0  0  0  0  0  0  0  0  0
  1  2  1  0  0  0  0 
  2  3  1  0  0  0  0 
  2  4  1  0  0  0  0 
  2  5  1  0  0  0  0 
  3  6  2  0  0  0  0 
  3  7  1  0  0  0  0 
  8  4  2  0  0  0  0 
  4  9  1  0  0  0  0 
  6  8  1  0  0  0  0 
  6 10  1  0  0  0  0 
  8 11  1  0  0  0  0 
M  END
> <Name>
1,3-Cyclopentadiene, 1,2,3,4,5,5-hexachloro-

> <Source>
DSSTox2DMolFile

> <Tox>
6.781

> <CAS>
77-47-4

$$$$

  CDK

  5  4  0  0  0  0  0  0  0  0999 V2000
    2.3056   -0.0000    0.0000 O   0  0  0  0  0  0  0  0  0  0  0  0
    2.3056   -1.3308    0.0000 C   0  0  0  0  0  0  0  0  0  0  0  0
    3.4567   -1.9945    0.0000 O   0  0  0  0  0  0  0  0  0  0  0  0
    1.1511   -1.9945    0.0000 C   0  0  0  0  0  0  0  0  0  0  0  0
    0.0000   -1.3308    0.0000 C   0  0  0  0  0  0  0  0  0  0  0  0
  1  2  2  0  0  0  0 
  2  3  1  0  0  0  0 
  2  4  1  0  0  0  0 
  4  5  1  0  0  0  0 
M  END
> <Name>
Propanoic acid

> <Source>
DSSTox2DMolFile

> <Tox>
3.171

> <CAS>
79-09-4

$$$$

  CDK

 10 11  0  0  0  0  0  0  0  0999 V2000
    1.3183   -0.6515    0.0000 C   0  0  0  0  0  0  0  0  0  0  0  0
    2.6061   -1.1087    0.0000 C   0  0  0  0  0  0  0  0  0  0  0  0
    0.0000   -0.9944    0.0000 C   0  0  0  0  0  0  0  0  0  0  0  0
    1.7755   -0.0000    0.0000 C   0  0  0  0  0  0  0  0  0  0  0  0
    2.5718   -2.3470    0.0000 C   0  0  0  0  0  0  0  0  0  0  0  0
    3.4367   -0.1143    0.0000 C   0  0  0  0  0  0  0  0  0  0  0  0
    3.8101   -1.7755    0.0000 C   0  0  0  0  0  0  0  0  0  0  0  0
    0.0000   -2.3470    0.0000 C   0  0  0  0  0  0  0  0  0  0  0  0
    1.4173   -1.7755    0.0000 C   0  0  0  0  0  0  0  0  0  0  0  0
    3.2233   -3.3719    0.0000 C   0  0  0  0  0  0  0  0  0  0  0  0
  1  2  1  0  0  0  0 
  1  3  1  0  0  0  0 
  1  4  1  0  0  0  0 
  2  5  1  0  0  0  0 
  2  6  1  0  0  0  0 
  2  7  1  0  0  0  0 
  8  3  1  0  0  0  0 
  9  4  1  0  0  0  0 
  5  9  1  0  0  0  0 
  5 10  2  0  0  0  0 
  9  8  1  0  0  0  0 
M  END
> <Name>
(1)-2,2-Dimethyl-3-methylenebicyclo(2.2.1)heptane

> <Source>
DSSTox2DMolFile

> <Tox>
3.792

> <CAS>
79-92-5

$$$$

  CDK

 10 10  0  0  0  0  0  0  0  0999 V2000
    3.9896   -2.3044    0.0000 N   0  0  0  0  0  0  0  0  0  0  0  0
    4.6553   -3.4542    0.0000 O   0  0  0  0  0  0  0  0  0  0  0  0
    4.6553   -1.1499    0.0000 O   0  0  0  0  0  0  0  0  0  0  0  0
    2.6582   -2.3044    0.0000 C   0  0  0  0  0  0  0  0  0  0  0  0
    1.9971   -3.4542    0.0000 C   0  0  0  0  0  0  0  0  0  0  0  0
    1.9971   -1.1499    0.0000 C   0  0  0  0  0  0  0  0  0  0  0  0
    0.6657   -3.4542    0.0000 C   0  0  0  0  0  0  0  0  0  0  0  0
    0.6657   -1.1499    0.0000 C   0  0  0  0  0  0  0  0  0  0  0  0
    2.6582   -0.0000    0.0000 C   0  0  0  0  0  0  0  0  0  0  0  0
    0.0000   -2.3044    0.0000 C   0  0  0  0  0  0  0  0  0  0  0  0
  1  2  2  0  0  0  0 
  1  3  1  0  0  0  0 
  1  4  1  0  0  0  0 
  4  5  2  0  0  0  0 
  4  6  1  0  0  0  0 
  5  7  1  0  0  0  0 
  8  6  2  0  0  0  0 
  6  9  1  0  0  0  0 
  7 10  2  0  0  0  0 
 10  8  1  0  0  0  0 
M  CHG  1   1   1
M  CHG  1   3  -1
M  END
> <Name>
Benzene, 1-methyl-2-nitro-

> <Source>
DSSTox2DMolFile

> <Tox>
4.144

> <CAS>
88-72-2

$$$$

  CDK

 10 10  0  0  0  0  0  0  0  0999 V2000
    2.6582   -0.0000    0.0000 O   0  0  0  0  0  0  0  0  0  0  0  0
    1.9971   -1.1499    0.0000 C   0  0  0  0  0  0  0  0  0  0  0  0
    2.6582   -2.3044    0.0000 C   0  0  0  0  0  0  0  0  0  0  0  0
    0.6657   -1.1499    0.0000 C   0  0  0  0  0  0  0  0  0  0  0  0
    3.9896   -2.3044    0.0000 N   0  0  0  0  0  0  0  0  0  0  0  0
    1.9971   -3.4542    0.0000 C   0  0  0  0  0  0  0  0  0  0  0  0
    0.0000   -2.3044    0.0000 C   0  0  0  0  0  0  0  0  0  0  0  0
    4.6553   -1.1499    0.0000 O   0  0  0  0  0  0  0  0  0  0  0  0
    4.6553   -3.4542    0.0000 O   0  0  0  0  0  0  0  0  0  0  0  0
    0.6657   -3.4542    0.0000 C   0  0  0  0  0  0  0  0  0  0  0  0
  1  2  1  0  0  0  0 
  2  3  2  0  0  0  0 
  2  4  1  0  0  0  0 
  3  5  1  0  0  0  0 
  3  6  1  0  0  0  0 
  7  4  2  0  0  0  0 
  5  8  1  0  0  0  0 
  5  9  2  0  0  0  0 
  6 10  2  0  0  0  0 
 10  7  1  0  0  0  0 
M  CHG  1   5   1
M  CHG  1   8  -1
M  END
> <Name>
Phenol, 2-nitro-

> <Source>
DSSTox2DMolFile

> <Tox>
4.024

> <CAS>
88-75-5

$$$$

  CDK

  9  9  0  0  0  0  0  0  0  0999 V2000
    4.6563   -3.4550    0.0000 O   0  0  0  0  0  0  0  0  0  0  0  0
    3.9905   -2.3049    0.0000 C   0  0  0  0  0  0  0  0  0  0  0  0
    2.6588   -2.3049    0.0000 C   0  0  0  0  0  0  0  0  0  0  0  0
    1.9976   -3.4550    0.0000 C   0  0  0  0  0  0  0  0  0  0  0  0
    1.9976   -1.1501    0.0000 C   0  0  0  0  0  0  0  0  0  0  0  0
    0.6659   -3.4550    0.0000 C   0  0  0  0  0  0  0  0  0  0  0  0
    0.6659   -1.1501    0.0000 C   0  0  0  0  0  0  0  0  0  0  0  0
    2.6588   -0.0000    0.0000 O   0  0  0  0  0  0  0  0  0  0  0  0
    0.0000   -2.3049    0.0000 C   0  0  0  0  0  0  0  0  0  0  0  0
  1  2  2  0  0  0  0 
  2  3  1  0  0  0  0 
  3  4  2  0  0  0  0 
  3  5  1  0  0  0  0 
  4  6  1  0  0  0  0 
  7  5  2  0  0  0  0 
  5  8  1  0  0  0  0 
  6  9  2  0  0  0  0 
  9  7  1  0  0  0  0 
M  END
> <Name>
Benzaldehyde, 2-hydroxy-

> <Source>
DSSTox2DMolFile

> <Tox>
4.474

> <CAS>
90-02-8

$$$$

  CDK

 13 14  0  0  0  0  0  0  0  0999 V2000
    2.6607   -0.0000    0.0000 O   0  0  0  0  0  0  0  0  0  0  0  0
    1.9955   -1.1574    0.0000 C   0  0  0  0  0  0  0  0  0  0  0  0
    2.6607   -2.3082    0.0000 C   0  0  0  0  0  0  0  0  0  0  0  0
    0.6652   -1.1574    0.0000 C   0  0  0  0  0  0  0  0  0  0  0  0
    1.9955   -3.4589    0.0000 C   0  0  0  0  0  0  0  0  0  0  0  0
    3.9910   -2.3082    0.0000 C   0  0  0  0  0  0  0  0  0  0  0  0
    0.0000   -2.3082    0.0000 C   0  0  0  0  0  0  0  0  0  0  0  0
    0.6652   -3.4589    0.0000 C   0  0  0  0  0  0  0  0  0  0  0  0
    4.6562   -1.1574    0.0000 C   0  0  0  0  0  0  0  0  0  0  0  0
    4.6562   -3.4589    0.0000 C   0  0  0  0  0  0  0  0  0  0  0  0
    5.9866   -1.1574    0.0000 C   0  0  0  0  0  0  0  0  0  0  0  0
    5.9866   -3.4589    0.0000 C   0  0  0  0  0  0  0  0  0  0  0  0
    6.6517   -2.3082    0.0000 C   0  0  0  0  0  0  0  0  0  0  0  0
  1  2  1  0  0  0  0 
  2  3  2  0  0  0  0 
  2  4  1  0  0  0  0 
  3  5  1  0  0  0  0 
  3  6  1  0  0  0  0 
  7  4  2  0  0  0  0 
  5  8  2  0  0  0  0 
  6  9  2  0  0  0  0 
  6 10  1  0  0  0  0 
  8  7  1  0  0  0  0 
  9 11  1  0  0  0  0 
 12 10  2  0  0  0  0 
 11 13  2  0  0  0  0 
 13 12  1  0  0  0  0 
M  END
> <Name>
(1,1'-Biphenyl)-2-ol

> <Source>
DSSTox2DMolFile

> <Tox>
5.380

> <CAS>
90-43-7

$$$$

  CDK

 10 11  0  0  0  0  0  0  0  0999 V2000
    3.4558   -0.0000    0.0000 C   0  0  0  0  0  0  0  0  0  0  0  0
    2.3039   -0.6635    0.0000 C   0  0  0  0  0  0  0  0  0  0  0  0
    4.6078   -0.6635    0.0000 C   0  0  0  0  0  0  0  0  0  0  0  0
    2.3039   -1.9952    0.0000 C   0  0  0  0  0  0  0  0  0  0  0  0
    1.1519   -0.0000    0.0000 C   0  0  0  0  0  0  0  0  0  0  0  0
    4.6078   -1.9952    0.0000 C   0  0  0  0  0  0  0  0  0  0  0  0
    3.4558   -2.6587    0.0000 C   0  0  0  0  0  0  0  0  0  0  0  0
    1.1519   -2.6587    0.0000 C   0  0  0  0  0  0  0  0  0  0  0  0
    0.0000   -0.6635    0.0000 C   0  0  0  0  0  0  0  0  0  0  0  0
    0.0000   -1.9952    0.0000 C   0  0  0  0  0  0  0  0  0  0  0  0
  1  2  2  0  0  0  0 
  1  3  1  0  0  0  0 
  2  4  1  0  0  0  0 
  2  5  1  0  0  0  0 
  6  3  2  0  0  0  0 
  4  7  2  0  0  0  0 
  4  8  1  0  0  0  0 
  9  5  2  0  0  0  0 
  7  6  1  0  0  0  0 
  8 10  2  0  0  0  0 
 10  9  1  0  0  0  0 
M  END
> <Name>
Naphthalene, pure

> <Source>
DSSTox2DMolFile

> <Tox>
4.051

> <CAS>
91-20-3

$$$$

  CDK

 11 12  0  0  0  0  0  0  0  0999 V2000
    0.0000   -2.6606    0.0000 O   0  0  0  0  0  0  0  0  0  0  0  0
    1.1518   -1.9983    0.0000 C   0  0  0  0  0  0  0  0  0  0  0  0
    2.3036   -2.6606    0.0000 O   0  0  0  0  0  0  0  0  0  0  0  0
    1.1518   -0.6680    0.0000 C   0  0  0  0  0  0  0  0  0  0  0  0
    3.4554   -1.9983    0.0000 C   0  0  0  0  0  0  0  0  0  0  0  0
    2.3036   -0.0000    0.0000 C   0  0  0  0  0  0  0  0  0  0  0  0
    3.4554   -0.6680    0.0000 C   0  0  0  0  0  0  0  0  0  0  0  0
    4.6071   -2.6606    0.0000 C   0  0  0  0  0  0  0  0  0  0  0  0
    4.6071   -0.0000    0.0000 C   0  0  0  0  0  0  0  0  0  0  0  0
    5.7589   -1.9983    0.0000 C   0  0  0  0  0  0  0  0  0  0  0  0
    5.7589   -0.6680    0.0000 C   0  0  0  0  0  0  0  0  0  0  0  0
  1  2  2  0  0  0  0 
  2  3  1  0  0  0  0 
  2  4  1  0  0  0  0 
  3  5  1  0  0  0  0 
  6  4  2  0  0  0  0 
  5  7  2  0  0  0  0 
  5  8  1  0  0  0  0 
  7  6  1  0  0  0  0 
  7  9  1  0  0  0  0 
 10  8  2  0  0  0  0 
  9 11  2  0  0  0  0 
 11 10  1  0  0  0  0 
M  END
> <Name>
2H-1-Benzopyran-2-one

> <Source>
DSSTox2DMolFile

> <Tox>
4.034

> <CAS>
91-64-5

$$$$

  CDK

 13 13  0  0  0  0  0  0  0  0999 V2000
    5.7574   -3.9915    0.0000 Cl  0  0  0  0  0  0  0  0  0  0  0  0
    5.7574   -2.6610    0.0000 C   0  0  0  0  0  0  0  0  0  0  0  0
    4.6043   -1.9998    0.0000 C   0  0  0  0  0  0  0  0  0  0  0  0
    6.9105   -1.9998    0.0000 C   0  0  0  0  0  0  0  0  0  0  0  0
    4.6043   -0.6693    0.0000 C   0  0  0  0  0  0  0  0  0  0  0  0
    3.4593   -2.6610    0.0000 O   0  0  0  0  0  0  0  0  0  0  0  0
    6.9105   -0.6693    0.0000 C   0  0  0  0  0  0  0  0  0  0  0  0
    5.7574   -0.0000    0.0000 C   0  0  0  0  0  0  0  0  0  0  0  0
    2.3062   -1.9998    0.0000 C   0  0  0  0  0  0  0  0  0  0  0  0
    8.0636   -0.0000    0.0000 Cl  0  0  0  0  0  0  0  0  0  0  0  0
    1.1531   -2.6610    0.0000 C   0  0  0  0  0  0  0  0  0  0  0  0
    1.1531   -3.9915    0.0000 O   0  0  0  0  0  0  0  0  0  0  0  0
    0.0000   -1.9998    0.0000 O   0  0  0  0  0  0  0  0  0  0  0  0
  1  2  1  0  0  0  0 
  2  3  2  0  0  0  0 
  2  4  1  0  0  0  0 
  3  5  1  0  0  0  0 
  3  6  1  0  0  0  0 
  7  4  2  0  0  0  0 
  5  8  2  0  0  0  0 
  6  9  1  0  0  0  0 
  8  7  1  0  0  0  0 
  7 10  1  0  0  0  0 
  9 11  1  0  0  0  0 
 11 12  2  0  0  0  0 
 11 13  1  0  0  0  0 
M  END
> <Name>
Acetic acid, (2,4-dichlorophenoxy)-

> <Source>
DSSTox2DMolFile

> <Tox>
3.499

> <CAS>
94-75-7

$$$$

  CDK

  9  9  0  0  0  0  0  0  0  0999 V2000
    4.6082   -2.6589    0.0000 N   0  0  0  0  0  0  0  0  0  0  0  0
    3.4561   -1.9953    0.0000 C   0  0  0  0  0  0  0  0  0  0  0  0
    2.3041   -2.6589    0.0000 C   0  0  0  0  0  0  0  0  0  0  0  0
    3.4561   -0.6636    0.0000 C   0  0  0  0  0  0  0  0  0  0  0  0
    1.1520   -1.9953    0.0000 C   0  0  0  0  0  0  0  0  0  0  0  0
    2.3041   -0.0000    0.0000 C   0  0  0  0  0  0  0  0  0  0  0  0
    0.0000   -2.6589    0.0000 Cl  0  0  0  0  0  0  0  0  0  0  0  0
    1.1520   -0.6636    0.0000 C   0  0  0  0  0  0  0  0  0  0  0  0
    0.0000   -0.0000    0.0000 Cl  0  0  0  0  0  0  0  0  0  0  0  0
  1  2  1  0  0  0  0 
  2  3  2  0  0  0  0 
  2  4  1  0  0  0  0 
  3  5  1  0  0  0  0 
  6  4  2  0  0  0  0 
  5  7  1  0  0  0  0 
  5  8  2  0  0  0  0 
  8  6  1  0  0  0  0 
  8  9  1  0  0  0  0 
M  END
> <Name>
Benzenamine, 3,4-dichloro-

> <Source>
DSSTox2DMolFile

> <Tox>
5.747

> <CAS>
95-76-1

$$$$

  CDK

 11 11  0  0  0  0  0  0  0  0999 V2000
    5.9835   -2.3037    0.0000 C   0  0  0  0  0  0  0  0  0  0  0  0
    4.6552   -2.3037    0.0000 C   0  0  0  0  0  0  0  0  0  0  0  0
    3.9910   -3.4525    0.0000 C   0  0  0  0  0  0  0  0  0  0  0  0
    3.9910   -1.1488    0.0000 C   0  0  0  0  0  0  0  0  0  0  0  0
    2.6567   -3.4525    0.0000 C   0  0  0  0  0  0  0  0  0  0  0  0
    2.6567   -1.1488    0.0000 C   0  0  0  0  0  0  0  0  0  0  0  0
    4.6552   -0.0000    0.0000 C   0  0  0  0  0  0  0  0  0  0  0  0
    1.9925   -2.3037    0.0000 C   0  0  0  0  0  0  0  0  0  0  0  0
    0.6642   -2.3037    0.0000 N   0  0  0  0  0  0  0  0  0  0  0  0
    0.0000   -3.4525    0.0000 O   0  0  0  0  0  0  0  0  0  0  0  0
    0.0000   -1.1488    0.0000 O   0  0  0  0  0  0  0  0  0  0  0  0
  1  2  1  0  0  0  0 
  2  3  2  0  0  0  0 
  2  4  1  0  0  0  0 
  3  5  1  0  0  0  0 
  6  4  2  0  0  0  0 
  4  7  1  0  0  0  0 
  5  8  2  0  0  0  0 
  8  6  1  0  0  0  0 
  8  9  1  0  0  0  0 
  9 10  1  0  0  0  0 
  9 11  2  0  0  0  0 
M  CHG  1   9   1
M  CHG  1  10  -1
M  END
> <Name>
o-Xylene, 4-nitro- (8CI)

> <Source>
DSSTox2DMolFile

> <Tox>
3.975

> <CAS>
99-51-4

$$$$

  CDK

 10 10  0  0  0  0  0  0  0  0999 V2000
    4.6590   -1.1393    0.0000 C   0  0  0  0  0  0  0  0  0  0  0  0
    4.0054   -2.2965    0.0000 C   0  0  0  0  0  0  0  0  0  0  0  0
    4.0054   -0.0000    0.0000 C   0  0  0  0  0  0  0  0  0  0  0  0
    5.9961   -1.1393    0.0000 C   0  0  0  0  0  0  0  0  0  0  0  0
    2.6683   -2.2965    0.0000 C   0  0  0  0  0  0  0  0  0  0  0  0
    2.6683   -0.0000    0.0000 C   0  0  0  0  0  0  0  0  0  0  0  0
    1.9907   -1.1393    0.0000 C   0  0  0  0  0  0  0  0  0  0  0  0
    0.6596   -1.1393    0.0000 C   0  0  0  0  0  0  0  0  0  0  0  0
    0.0000   -2.2965    0.0000 C   0  0  0  0  0  0  0  0  0  0  0  0
    0.0000   -0.0000    0.0000 C   0  0  0  0  0  0  0  0  0  0  0  0
  1  2  2  0  0  0  0 
  1  3  1  0  0  0  0 
  1  4  1  0  0  0  0 
  2  5  1  0  0  0  0 
  6  3  2  0  0  0  0 
  5  7  2  0  0  0  0 
  7  6  1  0  0  0  0 
  7  8  1  0  0  0  0 
  8  9  1  0  0  0  0 
  8 10  1  0  0  0  0 
M  END
> <Name>
Benzene, 1-methyl-4-(1-methylethyl)-

> <Source>
DSSTox2DMolFile

> <Tox>
4.315

> <CAS>
99-87-6

$$$$

  CDK

 26 25  0  0  0  0  0  0  0  0999 V2000
   14.9694   -5.9739    0.0000 C   0  0  0  0  0  0  0  0  0  0  0  0
   16.1089   -5.3178    0.0000 C   0  0  0  0  0  0  0  0  0  0  0  0
   16.1089   -3.9884    0.0000 C   0  0  0  0  0  0  0  0  0  0  0  0
   14.9694   -3.3150    0.0000 C   0  0  0  0  0  0  0  0  0  0  0  0
   17.2657   -3.3150    0.0000 C   0  0  0  0  0  0  0  0  0  0  0  0
   13.8126   -3.9884    0.0000 O   0  0  0  0  0  0  0  0  0  0  0  0
   17.2657   -1.9856    0.0000 C   0  0  0  0  0  0  0  0  0  0  0  0
   12.6558   -3.3150    0.0000 C   0  0  0  0  0  0  0  0  0  0  0  0
   16.1089   -1.3295    0.0000 C   0  0  0  0  0  0  0  0  0  0  0  0
   12.6558   -1.9856    0.0000 O   0  0  0  0  0  0  0  0  0  0  0  0
   11.5162   -3.9884    0.0000 C   0  0  0  0  0  0  0  0  0  0  0  0
   16.1089   -0.0000    0.0000 C   0  0  0  0  0  0  0  0  0  0  0  0
   10.3594   -3.3150    0.0000 C   0  0  0  0  0  0  0  0  0  0  0  0
    9.2026   -3.9884    0.0000 C   0  0  0  0  0  0  0  0  0  0  0  0
    8.0631   -3.3150    0.0000 C   0  0  0  0  0  0  0  0  0  0  0  0
    6.9063   -3.9884    0.0000 C   0  0  0  0  0  0  0  0  0  0  0  0
    5.7495   -3.3150    0.0000 O   0  0  0  0  0  0  0  0  0  0  0  0
    6.9063   -5.3178    0.0000 O   0  0  0  0  0  0  0  0  0  0  0  0
    5.7495   -5.9739    0.0000 C   0  0  0  0  0  0  0  0  0  0  0  0
    4.6099   -5.3178    0.0000 C   0  0  0  0  0  0  0  0  0  0  0  0
    3.4531   -5.9739    0.0000 C   0  0  0  0  0  0  0  0  0  0  0  0
    4.6099   -3.9884    0.0000 C   0  0  0  0  0  0  0  0  0  0  0  0
    2.2963   -5.3178    0.0000 C   0  0  0  0  0  0  0  0  0  0  0  0
    3.4531   -3.3150    0.0000 C   0  0  0  0  0  0  0  0  0  0  0  0
    1.1568   -5.9739    0.0000 C   0  0  0  0  0  0  0  0  0  0  0  0
    0.0000   -5.3178    0.0000 C   0  0  0  0  0  0  0  0  0  0  0  0
  1  2  1  0  0  0  0 
  2  3  1  0  0  0  0 
  3  4  1  0  0  0  0 
  3  5  1  0  0  0  0 
  4  6  1  0  0  0  0 
  5  7  1  0  0  0  0 
  6  8  1  0  0  0  0 
  7  9  1  0  0  0  0 
  8 10  2  0  0  0  0 
  8 11  1  0  0  0  0 
  9 12  1  0  0  0  0 
 11 13  1  0  0  0  0 
 13 14  1  0  0  0  0 
 14 15  1  0  0  0  0 
 15 16  1  0  0  0  0 
 16 17  2  0  0  0  0 
 16 18  1  0  0  0  0 
 18 19  1  0  0  0  0 
 19 20  1  0  0  0  0 
 20 21  1  0  0  0  0 
 20 22  1  0  0  0  0 
 21 23  1  0  0  0  0 
 22 24  1  0  0  0  0 
 23 25  1  0  0  0  0 
 25 26  1  0  0  0  0 
M  END
> <Name>
Hexanedioic acid, bis(2-ethylhexyl) ester

> <Source>
DSSTox2DMolFile

> <Tox>
5.749

> <CAS>
103-23-1

$$$$

  CDK

  7  6  0  0  0  0  0  0  0  0999 V2000
   -0.5202    0.1666    0.0155 C   0  0  0  0  0  0  0  0  0  0  0  0
   -1.6331   -0.8569    0.0343 C   0  0  0  0  0  0  0  0  0  0  0  0
   -0.5983    1.3790    0.0121 O   0  0  0  0  0  0  0  0  0  0  0  0
    0.7138   -0.4196    0.0046 O   0  0  0  0  0  0  0  0  0  0  0  0
   -3.0058   -0.2293   -0.0408 C   0  0  0  0  0  0  0  0  0  0  0  0
    1.8691    0.4207   -0.0076 C   0  0  0  0  0  0  0  0  0  0  0  0
    3.0724   -0.5024   -0.0150 C   0  0  0  0  0  0  0  0  0  0  0  0
  1  2  1  0  0  0  0 
  1  3  2  0  0  0  0 
  1  4  1  0  0  0  0 
  2  5  1  0  0  0  0 
  4  6  1  0  0  0  0 
  6  7  1  0  0  0  0 
M  END
> <Name>
Propanoic acid, ethyl ester

> <Source>
DougDB3DMolFile

> <Tox>
2.837

> <CAS>
105-37-3

$$$$

  CDK

  8  8  0  0  0  0  0  0  0  0999 V2000
    0.0000   -1.1545    0.0000 O   0  0  0  0  0  0  0  0  0  0  0  0
    1.3300   -1.1545    0.0000 C   0  0  0  0  0  0  0  0  0  0  0  0
    1.9950   -0.0000    0.0000 C   0  0  0  0  0  0  0  0  0  0  0  0
    1.9950   -2.3036    0.0000 C   0  0  0  0  0  0  0  0  0  0  0  0
    3.3250   -0.0000    0.0000 C   0  0  0  0  0  0  0  0  0  0  0  0
    3.3250   -2.3036    0.0000 C   0  0  0  0  0  0  0  0  0  0  0  0
    3.9900   -1.1545    0.0000 C   0  0  0  0  0  0  0  0  0  0  0  0
    5.3201   -1.1545    0.0000 Cl  0  0  0  0  0  0  0  0  0  0  0  0
  1  2  1  0  0  0  0 
  2  3  2  0  0  0  0 
  2  4  1  0  0  0  0 
  3  5  1  0  0  0  0 
  6  4  2  0  0  0  0 
  5  7  2  0  0  0  0 
  7  6  1  0  0  0  0 
  7  8  1  0  0  0  0 
M  END
> <Name>
Phenol, 4-chloro-

> <Source>
DSSTox2DMolFile

> <Tox>
4.426

> <CAS>
106-48-9

$$$$

  CDK

  4  3  0  0  0  0  0  0  0  0999 V2000
    0.0000   -0.0000    0.0000 C   0  0  0  0  0  0  0  0  0  0  0  0
    1.1513   -0.6638    0.0000 C   0  0  0  0  0  0  0  0  0  0  0  0
    2.3061   -0.0000    0.0000 C   0  0  0  0  0  0  0  0  0  0  0  0
    3.4575   -0.6638    0.0000 O   0  0  0  0  0  0  0  0  0  0  0  0
  1  2  2  0  0  0  0 
  2  3  1  0  0  0  0 
  3  4  2  0  0  0  0 
M  END
> <Name>
Acrylaldehyde

> <Source>
DSSTox2DMolFile

> <Tox>
5.830

> <CAS>
107-02-8

$$$$

  CDK

  4  3  0  0  0  0  0  0  0  0999 V2000
    0.0000   -0.0000    0.0000 C   0  0  0  0  0  0  0  0  0  0  0  0
    0.6652   -1.1508    0.0000 C   0  0  0  0  0  0  0  0  0  0  0  0
    1.9956   -1.1508    0.0000 C   0  0  0  0  0  0  0  0  0  0  0  0
    3.3260   -1.1508    0.0000 N   0  0  0  0  0  0  0  0  0  0  0  0
  1  2  2  0  0  0  0 
  2  3  1  0  0  0  0 
  3  4  3  0  0  0  0 
M  END
> <Name>
2-Propenenitrile

> <Source>
DSSTox2DMolFile

> <Tox>
3.784

> <CAS>
107-13-1

$$$$

  CDK

 12 11  0  0  0  0  0  0  0  0999 V2000
   -0.8194   -0.8678   -0.4318 N   0  0  0  0  0  0  0  0  0  0  0  0
    0.3043   -1.4827    0.1244 C   0  0  0  0  0  0  0  0  0  0  0  0
   -1.6302    0.1615    0.2639 C   0  0  0  0  0  0  0  0  0  0  0  0
    0.7638   -2.9939   -0.3647 S   0  0  0  0  0  0  0  0  0  0  0  0
    1.0145   -0.7927    1.1543 N   0  0  0  0  0  0  0  0  0  0  0  0
   -2.9988    0.3180   -0.3886 C   0  0  0  0  0  0  0  0  0  0  0  0
    1.4458    0.6159    0.9898 C   0  0  0  0  0  0  0  0  0  0  0  0
   -3.7982    1.4087    0.3077 C   0  0  0  0  0  0  0  0  0  0  0  0
    2.6485    0.7865    0.0661 C   0  0  0  0  0  0  0  0  0  0  0  0
   -5.1620    1.5772   -0.3230 C   0  0  0  0  0  0  0  0  0  0  0  0
    3.0789    2.2436    0.0118 C   0  0  0  0  0  0  0  0  0  0  0  0
    4.2700    2.4314   -0.9004 C   0  0  0  0  0  0  0  0  0  0  0  0
  1  2  1  0  0  0  0 
  1  3  1  0  0  0  0 
  2  4  2  0  0  0  0 
  2  5  1  0  0  0  0 
  3  6  1  0  0  0  0 
  5  7  1  0  0  0  0 
  6  8  1  0  0  0  0 
  7  9  1  0  0  0  0 
  8 10  1  0  0  0  0 
  9 11  1  0  0  0  0 
 11 12  1  0  0  0  0 
M  END
> <Name>
Urea,1,3-dibutyl-2-thio- (8CI)

> <Source>
DougDB3DMolFile

> <Tox>
3.756

> <CAS>
109-46-6

$$$$

  CDK

  7  6  0  0  0  0  0  0  0  0999 V2000
    5.7637   -1.9942    0.0000 O   0  0  0  0  0  0  0  0  0  0  0  0
    4.6110   -1.3314    0.0000 C   0  0  0  0  0  0  0  0  0  0  0  0
    3.4582   -1.9942    0.0000 C   0  0  0  0  0  0  0  0  0  0  0  0
    4.6110   -0.0000    0.0000 O   0  0  0  0  0  0  0  0  0  0  0  0
    2.3055   -1.3314    0.0000 C   0  0  0  0  0  0  0  0  0  0  0  0
    1.1527   -1.9942    0.0000 C   0  0  0  0  0  0  0  0  0  0  0  0
    0.0000   -1.3314    0.0000 C   0  0  0  0  0  0  0  0  0  0  0  0
  1  2  1  0  0  0  0 
  2  3  1  0  0  0  0 
  2  4  2  0  0  0  0 
  3  5  1  0  0  0  0 
  5  6  1  0  0  0  0 
  6  7  1  0  0  0  0 
M  END
> <Name>
Pentanoic acid

> <Source>
DSSTox2DMolFile

> <Tox>
3.356

> <CAS>
109-52-4

$$$$

  CDK

  6  6  0  0  0  0  0  0  0  0999 V2000
   -0.6639   -1.2720   -0.0473 C   0  0  0  0  0  0  0  0  0  0  0  0
    0.6667   -1.2707    0.0476 C   0  0  0  0  0  0  0  0  0  0  0  0
   -1.4763   -0.0287   -0.1165 C   0  0  0  0  0  0  0  0  0  0  0  0
    1.4765   -0.0255    0.1159 C   0  0  0  0  0  0  0  0  0  0  0  0
   -0.6952    1.2053    0.3094 C   0  0  0  0  0  0  0  0  0  0  0  0
    0.6923    1.2070   -0.3090 C   0  0  0  0  0  0  0  0  0  0  0  0
  1  2  2  0  0  0  0 
  1  3  1  0  0  0  0 
  2  4  1  0  0  0  0 
  5  3  1  0  0  0  0 
  4  6  1  0  0  0  0 
  6  5  1  0  0  0  0 
M  END
> <Name>
Cyclohexene

> <Source>
DougDB3DMolFile

> <Tox>
3.941

> <CAS>
110-83-8

$$$$

  CDK

  7  6  0  0  0  0  0  0  0  0999 V2000
    0.0000   -0.6638    0.0000 Cl  0  0  0  0  0  0  0  0  0  0  0  0
    1.1548   -0.0000    0.0000 C   0  0  0  0  0  0  0  0  0  0  0  0
    2.3027   -0.6638    0.0000 C   0  0  0  0  0  0  0  0  0  0  0  0
    3.4575   -0.0000    0.0000 O   0  0  0  0  0  0  0  0  0  0  0  0
    4.6122   -0.6638    0.0000 C   0  0  0  0  0  0  0  0  0  0  0  0
    5.7601   -0.0000    0.0000 C   0  0  0  0  0  0  0  0  0  0  0  0
    6.9149   -0.6638    0.0000 Cl  0  0  0  0  0  0  0  0  0  0  0  0
  1  2  1  0  0  0  0 
  2  3  1  0  0  0  0 
  3  4  1  0  0  0  0 
  4  5  1  0  0  0  0 
  5  6  1  0  0  0  0 
  6  7  1  0  0  0  0 
M  END
> <Name>
Ethane, 1,1'-oxybis(2-chloro-

> <Source>
DSSTox2DMolFile

> <Tox>
2.775

> <CAS>
111-44-4

$$$$

  CDK

 10  9  0  0  0  0  0  0  0  0999 V2000
    0.0000   -0.6638    0.0000 O   0  0  0  0  0  0  0  0  0  0  0  0
    1.1513   -0.0000    0.0000 C   0  0  0  0  0  0  0  0  0  0  0  0
    2.3027   -0.6638    0.0000 C   0  0  0  0  0  0  0  0  0  0  0  0
    3.4540   -0.0000    0.0000 O   0  0  0  0  0  0  0  0  0  0  0  0
    4.6053   -0.6638    0.0000 C   0  0  0  0  0  0  0  0  0  0  0  0
    5.7670   -0.0000    0.0000 C   0  0  0  0  0  0  0  0  0  0  0  0
    6.9184   -0.6638    0.0000 O   0  0  0  0  0  0  0  0  0  0  0  0
    8.0697   -0.0000    0.0000 C   0  0  0  0  0  0  0  0  0  0  0  0
    9.2210   -0.6638    0.0000 C   0  0  0  0  0  0  0  0  0  0  0  0
   10.3724   -0.0000    0.0000 O   0  0  0  0  0  0  0  0  0  0  0  0
  1  2  1  0  0  0  0 
  2  3  1  0  0  0  0 
  3  4  1  0  0  0  0 
  4  5  1  0  0  0  0 
  5  6  1  0  0  0  0 
  6  7  1  0  0  0  0 
  7  8  1  0  0  0  0 
  8  9  1  0  0  0  0 
  9 10  1  0  0  0  0 
M  END
> <Name>
Ethanol, 2,2'-(1,2-ethanediylbis(oxy))bis-

> <Source>
DSSTox2DMolFile

> <Tox>
0.520

> <CAS>
112-27-6

$$$$

  CDK

 17 18  0  0  0  0  0  0  0  0999 V2000
    2.1745   -0.2253    0.8075 C   0  0  0  0  0  0  0  0  0  0  0  0
    1.0627    0.7208    0.2352 C   0  0  0  0  0  0  0  0  0  0  0  0
    2.7986   -0.8776   -0.4788 C   0  0  0  0  0  0  0  0  0  0  0  0
    3.3180    0.7418    1.2248 C   0  0  0  0  0  0  0  0  0  0  0  0
    1.7530   -1.1583    1.9098 C   0  0  0  0  0  0  0  0  0  0  0  0
    1.6111    1.1012   -1.1681 C   0  0  0  0  0  0  0  0  0  0  0  0
   -0.1747    0.0052    0.1583 O   0  0  0  0  0  0  0  0  0  0  0  0
    3.0314    0.5049   -1.1660 C   0  0  0  0  0  0  0  0  0  0  0  0
    4.0785   -1.6553   -0.1957 C   0  0  0  0  0  0  0  0  0  0  0  0
    1.8759   -1.7865   -1.2783 C   0  0  0  0  0  0  0  0  0  0  0  0
    3.8504    1.2800   -0.1167 C   0  0  0  0  0  0  0  0  0  0  0  0
   -1.3466    0.7038    0.0880 C   0  0  0  0  0  0  0  0  0  0  0  0
   -2.5193   -0.2550    0.0504 C   0  0  0  0  0  0  0  0  0  0  0  0
   -1.3447    1.9161    0.0628 O   0  0  0  0  0  0  0  0  0  0  0  0
   -4.1454    0.5950   -0.0338 S   0  0  0  0  0  0  0  0  0  0  0  0
   -5.1500   -0.7244   -0.0618 C   0  0  0  0  0  0  0  0  0  0  0  0
   -5.9075   -1.6093   -0.0846 N   0  0  0  0  0  0  0  0  0  0  0  0
  1  2  1  0  0  0  0 
  1  3  1  0  0  0  0 
  1  4  1  0  0  0  0 
  1  5  1  0  0  0  0 
  2  6  1  0  0  0  0 
  2  7  1  0  0  0  0 
  3  8  1  0  0  0  0 
  3  9  1  0  0  0  0 
  3 10  1  0  0  0  0 
  4 11  1  0  0  0  0 
  6  8  1  0  0  0  0 
  7 12  1  0  0  0  0 
  8 11  1  0  0  0  0 
 12 13  1  0  0  0  0 
 12 14  2  0  0  0  0 
 13 15  1  0  0  0  0 
 15 16  1  0  0  0  0 
 16 17  3  0  0  0  0 
M  END
> <Name>
Acetic acid, thiocyanato-, (1R,2R,4R)-1,7,7-trimethylbicyclo(2.2.1)hept-2-yl ester, rel-

> <Source>
DougDB3DMolFile

> <Tox>
6.449

> <CAS>
115-31-1

$$$$

  CDK

 10 11  0  0  0  0  0  0  0  0999 V2000
   -1.2496    1.3663    0.0000 C   0  0  0  0  0  0  0  0  0  0  0  0
   -2.3951    0.7017    0.0000 N   0  0  0  0  0  0  0  0  0  0  0  0
    0.0109    0.6940    0.0000 C   0  0  0  0  0  0  0  0  0  0  0  0
   -2.3928   -0.6819    0.0000 C   0  0  0  0  0  0  0  0  0  0  0  0
    0.0184   -0.7152    0.0000 C   0  0  0  0  0  0  0  0  0  0  0  0
    1.2384    1.4025    0.0000 C   0  0  0  0  0  0  0  0  0  0  0  0
   -1.2279   -1.4027    0.0000 C   0  0  0  0  0  0  0  0  0  0  0  0
    1.2594   -1.4032    0.0000 C   0  0  0  0  0  0  0  0  0  0  0  0
    2.4241    0.7159    0.0000 C   0  0  0  0  0  0  0  0  0  0  0  0
    2.4339   -0.6978    0.0000 C   0  0  0  0  0  0  0  0  0  0  0  0
  1  2  2  0  0  0  0 
  1  3  1  0  0  0  0 
  2  4  1  0  0  0  0 
  5  3  1  0  0  0  0 
  6  3  2  0  0  0  0 
  4  7  2  0  0  0  0 
  7  5  1  0  0  0  0 
  5  8  2  0  0  0  0 
  9  6  1  0  0  0  0 
  8 10  1  0  0  0  0 
 10  9  2  0  0  0  0 
M  END
> <Name>
Isoquinoline

> <Source>
DougDB3DMolFile

> <Tox>
3.711

> <CAS>
119-65-3

$$$$

  CDK

  9  9  0  0  0  0  0  0  0  0999 V2000
    4.6082   -0.0000    0.0000 Cl  0  0  0  0  0  0  0  0  0  0  0  0
    3.4561   -0.6636    0.0000 C   0  0  0  0  0  0  0  0  0  0  0  0
    3.4561   -1.9953    0.0000 C   0  0  0  0  0  0  0  0  0  0  0  0
    2.3041   -0.0000    0.0000 C   0  0  0  0  0  0  0  0  0  0  0  0
    4.6082   -2.6589    0.0000 Cl  0  0  0  0  0  0  0  0  0  0  0  0
    2.3041   -2.6589    0.0000 C   0  0  0  0  0  0  0  0  0  0  0  0
    1.1520   -0.6636    0.0000 C   0  0  0  0  0  0  0  0  0  0  0  0
    1.1520   -1.9953    0.0000 C   0  0  0  0  0  0  0  0  0  0  0  0
    0.0000   -2.6589    0.0000 Cl  0  0  0  0  0  0  0  0  0  0  0  0
  1  2  1  0  0  0  0 
  2  3  2  0  0  0  0 
  2  4  1  0  0  0  0 
  3  5  1  0  0  0  0 
  3  6  1  0  0  0  0 
  7  4  2  0  0  0  0 
  6  8  2  0  0  0  0 
  8  7  1  0  0  0  0 
  8  9  1  0  0  0  0 
M  END
> <Name>
Benzene, 1,2,4-trichloro-

> <Source>
DSSTox2DMolFile

> <Tox>
4.655

> <CAS>
120-82-1

$$$$

  CDK

 13 13  0  0  0  0  0  0  0  0999 V2000
    5.7563   -0.0000    0.0000 C   0  0  0  0  0  0  0  0  0  0  0  0
    4.6092   -0.6634    0.0000 C   0  0  0  0  0  0  0  0  0  0  0  0
    4.6092   -1.9902    0.0000 C   0  0  0  0  0  0  0  0  0  0  0  0
    3.4552   -0.0000    0.0000 C   0  0  0  0  0  0  0  0  0  0  0  0
    5.7563   -2.6605    0.0000 N   0  0  0  0  0  0  0  0  0  0  0  0
    3.4552   -2.6605    0.0000 C   0  0  0  0  0  0  0  0  0  0  0  0
    2.3011   -0.6634    0.0000 C   0  0  0  0  0  0  0  0  0  0  0  0
    6.9103   -1.9902    0.0000 O   0  0  0  0  0  0  0  0  0  0  0  0
    5.7563   -3.9873    0.0000 O   0  0  0  0  0  0  0  0  0  0  0  0
    2.3011   -1.9902    0.0000 C   0  0  0  0  0  0  0  0  0  0  0  0
    1.1540   -2.6605    0.0000 N   0  0  0  0  0  0  0  0  0  0  0  0
    0.0000   -1.9902    0.0000 O   0  0  0  0  0  0  0  0  0  0  0  0
    1.1540   -3.9873    0.0000 O   0  0  0  0  0  0  0  0  0  0  0  0
  1  2  1  0  0  0  0 
  2  3  2  0  0  0  0 
  2  4  1  0  0  0  0 
  3  5  1  0  0  0  0 
  3  6  1  0  0  0  0 
  7  4  2  0  0  0  0 
  5  8  1  0  0  0  0 
  5  9  2  0  0  0  0 
  6 10  2  0  0  0  0 
 10  7  1  0  0  0  0 
 10 11  1  0  0  0  0 
 11 12  1  0  0  0  0 
 11 13  2  0  0  0  0 
M  CHG  1   5   1
M  CHG  1   8  -1
M  CHG  1  11   1
M  CHG  1  12  -1
M  END
> <Name>
Benzene, 1-methyl-2,4-dinitro-

> <Source>
DSSTox2DMolFile

> <Tox>
3.716

> <CAS>
121-14-2

$$$$

  CDK

  7  6  0  0  0  0  0  0  0  0999 V2000
    4.6073   -1.9950    0.0000 C   0  0  0  0  0  0  0  0  0  0  0  0
    3.4555   -1.3315    0.0000 C   0  0  0  0  0  0  0  0  0  0  0  0
    3.4555   -0.0000    0.0000 O   0  0  0  0  0  0  0  0  0  0  0  0
    2.3037   -1.9950    0.0000 C   0  0  0  0  0  0  0  0  0  0  0  0
    1.1518   -1.3315    0.0000 C   0  0  0  0  0  0  0  0  0  0  0  0
    1.1518   -0.0000    0.0000 O   0  0  0  0  0  0  0  0  0  0  0  0
    0.0000   -1.9950    0.0000 C   0  0  0  0  0  0  0  0  0  0  0  0
  1  2  1  0  0  0  0 
  2  3  2  0  0  0  0 
  2  4  1  0  0  0  0 
  4  5  1  0  0  0  0 
  5  6  2  0  0  0  0 
  5  7  1  0  0  0  0 
M  END
> <Name>
2,4-Pentanedione

> <Source>
DSSTox2DMolFile

> <Tox>
1.893

> <CAS>
123-54-6

$$$$

  CDK

 13 15  0  0  0  0  0  0  0  0999 V2000
    5.3180   -0.0000    0.0000 C   0  0  0  0  0  0  0  0  0  0  0  0
    6.3919   -0.7798    0.0000 C   0  0  0  0  0  0  0  0  0  0  0  0
    4.1036   -0.5433    0.0000 C   0  0  0  0  0  0  0  0  0  0  0  0
    6.2512   -2.1029    0.0000 C   0  0  0  0  0  0  0  0  0  0  0  0
    3.9630   -1.8664    0.0000 C   0  0  0  0  0  0  0  0  0  0  0  0
    2.8827   -0.0000    0.0000 O   0  0  0  0  0  0  0  0  0  0  0  0
    5.0368   -2.6462    0.0000 C   0  0  0  0  0  0  0  0  0  0  0  0
    2.6590   -2.1413    0.0000 C   0  0  0  0  0  0  0  0  0  0  0  0
    1.9943   -0.9907    0.0000 C   0  0  0  0  0  0  0  0  0  0  0  0
    1.9943   -3.2918    0.0000 C   0  0  0  0  0  0  0  0  0  0  0  0
    0.6648   -0.9907    0.0000 C   0  0  0  0  0  0  0  0  0  0  0  0
    0.6648   -3.2918    0.0000 C   0  0  0  0  0  0  0  0  0  0  0  0
    0.0000   -2.1413    0.0000 C   0  0  0  0  0  0  0  0  0  0  0  0
  1  2  2  0  0  0  0 
  1  3  1  0  0  0  0 
  2  4  1  0  0  0  0 
  5  3  2  0  0  0  0 
  6  3  1  0  0  0  0 
  4  7  2  0  0  0  0 
  7  5  1  0  0  0  0 
  5  8  1  0  0  0  0 
  9  6  1  0  0  0  0 
  8 10  2  0  0  0  0 
  8  9  1  0  0  0  0 
 11  9  2  0  0  0  0 
 10 12  1  0  0  0  0 
 13 11  1  0  0  0  0 
 12 13  2  0  0  0  0 
M  END
> <Name>
Dibenzofuran

> <Source>
DSSTox2DMolFile

> <Tox>
4.995

> <CAS>
132-64-9

$$$$

  CDK

  8  8  0  0  0  0  0  0  0  0999 V2000
    4.6080   -2.6588    0.0000 O   0  0  0  0  0  0  0  0  0  0  0  0
    3.4560   -1.9953    0.0000 C   0  0  0  0  0  0  0  0  0  0  0  0
    2.3040   -2.6588    0.0000 N   0  0  0  0  0  0  0  0  0  0  0  0
    3.4560   -0.6635    0.0000 C   0  0  0  0  0  0  0  0  0  0  0  0
    1.1520   -1.9953    0.0000 C   0  0  0  0  0  0  0  0  0  0  0  0
    2.3040   -0.0000    0.0000 C   0  0  0  0  0  0  0  0  0  0  0  0
    0.0000   -2.6588    0.0000 S   0  0  0  0  0  0  0  0  0  0  0  0
    1.1520   -0.6635    0.0000 N   0  0  0  0  0  0  0  0  0  0  0  0
  1  2  2  0  0  0  0 
  2  3  1  0  0  0  0 
  2  4  1  0  0  0  0 
  3  5  1  0  0  0  0 
  6  4  2  0  0  0  0 
  5  7  2  0  0  0  0 
  5  8  1  0  0  0  0 
  8  6  1  0  0  0  0 
M  END
> <Name>
Uracil, 2-thio- (VAN) (8CI)

> <Source>
DSSTox2DMolFile

> <Tox>
4.221

> <CAS>
141-90-2

$$$$

  CDK

  8  7  0  0  0  0  0  0  0  0999 V2000
    2.0026    0.2376   -0.3290 C   0  0  0  0  0  0  0  0  0  0  0  0
    0.6703    0.6938    0.2888 C   0  0  0  0  0  0  0  0  0  0  0  0
    2.3003   -1.0501    0.1721 O   0  0  0  0  0  0  0  0  0  0  0  0
   -0.5160   -0.1688   -0.2189 C   0  0  0  0  0  0  0  0  0  0  0  0
    0.4587    2.1579   -0.0581 C   0  0  0  0  0  0  0  0  0  0  0  0
   -1.8290    0.2533    0.4645 C   0  0  0  0  0  0  0  0  0  0  0  0
   -0.3442   -1.5519    0.0243 O   0  0  0  0  0  0  0  0  0  0  0  0
   -3.0448   -0.2410   -0.2846 C   0  0  0  0  0  0  0  0  0  0  0  0
  1  2  1  0  0  0  0 
  1  3  1  0  0  0  0 
  2  4  1  0  0  0  0 
  2  5  1  0  0  0  0 
  4  6  1  0  0  0  0 
  4  7  1  0  0  0  0 
  6  8  1  0  0  0  0 
M  END
> <Name>
1,3-Pentanediol, 2-methyl-

> <Source>
DougDB3DMolFile

> <Tox>
1.236

> <CAS>
149-31-5

$$$$

  CDK

 14 16  0  0  0  0  0  0  0  0999 V2000
   -2.4755    1.4035    0.0000 C   0  0  0  0  0  0  0  0  0  0  0  0
   -3.6276    0.6808    0.0000 C   0  0  0  0  0  0  0  0  0  0  0  0
   -1.2066    0.7411    0.0000 C   0  0  0  0  0  0  0  0  0  0  0  0
   -3.5945   -0.7450    0.0000 C   0  0  0  0  0  0  0  0  0  0  0  0
   -1.1756   -0.6842    0.0000 C   0  0  0  0  0  0  0  0  0  0  0  0
    0.0000    1.4448    0.0000 C   0  0  0  0  0  0  0  0  0  0  0  0
   -2.4122   -1.4174    0.0000 C   0  0  0  0  0  0  0  0  0  0  0  0
    0.0000   -1.3679    0.0000 N   0  0  0  0  0  0  0  0  0  0  0  0
    1.2067    0.7411    0.0000 C   0  0  0  0  0  0  0  0  0  0  0  0
    1.1757   -0.6842    0.0000 C   0  0  0  0  0  0  0  0  0  0  0  0
    2.4755    1.4036    0.0000 C   0  0  0  0  0  0  0  0  0  0  0  0
    2.4122   -1.4175    0.0000 C   0  0  0  0  0  0  0  0  0  0  0  0
    3.6275    0.6807    0.0000 C   0  0  0  0  0  0  0  0  0  0  0  0
    3.5944   -0.7450    0.0000 C   0  0  0  0  0  0  0  0  0  0  0  0
  1  2  1  0  0  0  0 
  1  3  2  0  0  0  0 
  2  4  2  0  0  0  0 
  5  3  1  0  0  0  0 
  6  3  1  0  0  0  0 
  4  7  1  0  0  0  0 
  7  5  2  0  0  0  0 
  5  8  1  0  0  0  0 
  9  6  2  0  0  0  0 
  8 10  2  0  0  0  0 
 10  9  1  0  0  0  0 
 11  9  1  0  0  0  0 
 10 12  1  0  0  0  0 
 13 11  2  0  0  0  0 
 12 14  2  0  0  0  0 
 14 13  1  0  0  0  0 
M  END
> <Name>
Acridine

> <Source>
DougDB3DMolFile

> <Tox>
4.892

> <CAS>
260-94-6

$$$$

  CDK

 18 18  0  0  0  0  0  0  0  0999 V2000
    0.6670   -4.5983    0.0000 N   0  0  0  0  0  0  0  0  0  0  0  0
    1.9909   -4.5983    0.0000 C   0  0  0  0  0  0  0  0  0  0  0  0
    0.0000   -3.4462    0.0000 O   0  0  0  0  0  0  0  0  0  0  0  0
    0.0000   -5.7504    0.0000 O   0  0  0  0  0  0  0  0  0  0  0  0
    2.6579   -5.7504    0.0000 C   0  0  0  0  0  0  0  0  0  0  0  0
    2.6579   -3.4462    0.0000 C   0  0  0  0  0  0  0  0  0  0  0  0
    3.9919   -5.7504    0.0000 C   0  0  0  0  0  0  0  0  0  0  0  0
    3.9919   -3.4462    0.0000 C   0  0  0  0  0  0  0  0  0  0  0  0
    4.6589   -4.5983    0.0000 C   0  0  0  0  0  0  0  0  0  0  0  0
    5.9727   -4.5983    0.0000 O   0  0  0  0  0  0  0  0  0  0  0  0
    6.6599   -3.4462    0.0000 P   0  0  0  0  0  0  0  0  0  0  0  0
    5.4977   -2.7792    0.0000 O   0  0  0  0  0  0  0  0  0  0  0  0
    7.3168   -2.3042    0.0000 O   0  0  0  0  0  0  0  0  0  0  0  0
    7.8120   -4.1334    0.0000 O   0  0  0  0  0  0  0  0  0  0  0  0
    6.6700   -1.1521    0.0000 C   0  0  0  0  0  0  0  0  0  0  0  0
    8.9540   -3.4563    0.0000 C   0  0  0  0  0  0  0  0  0  0  0  0
    7.3168   -0.0000    0.0000 C   0  0  0  0  0  0  0  0  0  0  0  0
   10.1061   -4.1334    0.0000 C   0  0  0  0  0  0  0  0  0  0  0  0
  1  2  1  0  0  0  0 
  1  3  1  0  0  0  0 
  1  4  2  0  0  0  0 
  2  5  2  0  0  0  0 
  2  6  1  0  0  0  0 
  5  7  1  0  0  0  0 
  6  8  2  0  0  0  0 
  9  7  2  0  0  0  0 
  9  8  1  0  0  0  0 
 10  9  1  0  0  0  0 
 11 10  1  0  0  0  0 
 11 12  2  0  0  0  0 
 11 13  1  0  0  0  0 
 11 14  1  0  0  0  0 
 13 15  1  0  0  0  0 
 14 16  1  0  0  0  0 
 15 17  1  0  0  0  0 
 16 18  1  0  0  0  0 
M  CHG  1   1   1
M  CHG  1   3  -1
M  END
> <Name>
Phosphoric acid, diethyl 4-nitrophenyl ester

> <Source>
DSSTox2DMolFile

> <Tox>
9.161

> <CAS>
311-45-5

$$$$

  CDK

 20 20  0  0  0  0  0  0  0  0999 V2000
    5.7700   -3.3166    0.0000 P   0  0  0  0  0  0  0  0  0  0  0  0
    7.0967   -3.3166    0.0000 O   0  0  0  0  0  0  0  0  0  0  0  0
    5.7700   -4.6433    0.0000 O   0  0  0  0  0  0  0  0  0  0  0  0
    4.4434   -3.3166    0.0000 O   0  0  0  0  0  0  0  0  0  0  0  0
    5.7700   -1.9809    0.0000 O   0  0  0  0  0  0  0  0  0  0  0  0
    7.7600   -2.1626    0.0000 C   0  0  0  0  0  0  0  0  0  0  0  0
    4.6160   -5.3157    0.0000 C   0  0  0  0  0  0  0  0  0  0  0  0
    6.9240   -1.3266    0.0000 C   0  0  0  0  0  0  0  0  0  0  0  0
    9.0866   -2.1626    0.0000 C   0  0  0  0  0  0  0  0  0  0  0  0
    4.6160   -6.6514    0.0000 C   0  0  0  0  0  0  0  0  0  0  0  0
    3.4620   -4.6433    0.0000 C   0  0  0  0  0  0  0  0  0  0  0  0
    6.9240   -0.0000    0.0000 C   0  0  0  0  0  0  0  0  0  0  0  0
    3.4620   -7.3056    0.0000 Cl  0  0  0  0  0  0  0  0  0  0  0  0
    2.3080   -5.3157    0.0000 C   0  0  0  0  0  0  0  0  0  0  0  0
    3.4620   -3.3166    0.0000 C   0  0  0  0  0  0  0  0  0  0  0  0
    1.1540   -4.6433    0.0000 C   0  0  0  0  0  0  0  0  0  0  0  0
    2.3080   -6.6514    0.0000 Cl  0  0  0  0  0  0  0  0  0  0  0  0
    2.3080   -2.6624    0.0000 C   0  0  0  0  0  0  0  0  0  0  0  0
    1.1540   -3.3166    0.0000 C   0  0  0  0  0  0  0  0  0  0  0  0
    0.0000   -2.6624    0.0000 Cl  0  0  0  0  0  0  0  0  0  0  0  0
  1  2  1  0  0  0  0 
  1  3  1  0  0  0  0 
  1  4  2  0  0  0  0 
  1  5  1  0  0  0  0 
  2  6  1  0  0  0  0 
  3  7  1  0  0  0  0 
  5  8  1  0  0  0  0 
  6  9  1  0  0  0  0 
  7 10  2  0  0  0  0 
  7 11  1  0  0  0  0 
  8 12  1  0  0  0  0 
 10 13  1  0  0  0  0 
 11 14  2  0  0  0  0 
 11 15  1  0  0  0  0 
 14 16  1  0  0  0  0 
 14 17  1  0  0  0  0 
 15 18  2  0  0  0  0 
 16 19  2  0  0  0  0 
 18 19  1  0  0  0  0 
 19 20  1  0  0  0  0 
M  END
> <Name>
Phosphoric acid, 2-chloro-1-(2,4-dichlorophenyl)ethenyl diethyl ester (9CI)

> <Source>
DSSTox2DMolFile

> <Tox>
5.423

> <CAS>
470-90-6

$$$$

  CDK

  8  8  0  0  0  0  0  0  0  0999 V2000
    4.6080   -2.6588    0.0000 Cl  0  0  0  0  0  0  0  0  0  0  0  0
    3.4560   -1.9953    0.0000 C   0  0  0  0  0  0  0  0  0  0  0  0
    2.3040   -2.6588    0.0000 C   0  0  0  0  0  0  0  0  0  0  0  0
    3.4560   -0.6635    0.0000 C   0  0  0  0  0  0  0  0  0  0  0  0
    1.1520   -1.9953    0.0000 C   0  0  0  0  0  0  0  0  0  0  0  0
    2.3040   -0.0000    0.0000 C   0  0  0  0  0  0  0  0  0  0  0  0
    0.0000   -2.6588    0.0000 Cl  0  0  0  0  0  0  0  0  0  0  0  0
    1.1520   -0.6635    0.0000 C   0  0  0  0  0  0  0  0  0  0  0  0
  1  2  1  0  0  0  0 
  2  3  2  0  0  0  0 
  2  4  1  0  0  0  0 
  3  5  1  0  0  0  0 
  6  4  2  0  0  0  0 
  5  7  1  0  0  0  0 
  5  8  2  0  0  0  0 
  8  6  1  0  0  0  0 
M  END
> <Name>
Benzene, 1,3-dichloro-

> <Source>
DSSTox2DMolFile

> <Tox>
4.310

> <CAS>
541-73-1

$$$$

  CDK

  4  3  0  0  0  0  0  0  0  0999 V2000
    3.3274   -0.0000    0.0000 C   0  0  0  0  0  0  0  0  0  0  0  0
    2.6586   -1.1513    0.0000 N   0  0  0  0  0  0  0  0  0  0  0  0
    1.3376   -1.1513    0.0000 C   0  0  0  0  0  0  0  0  0  0  0  0
    0.0000   -1.1513    0.0000 S   0  0  0  0  0  0  0  0  0  0  0  0
  1  2  1  0  0  0  0 
  3  2  2  0  0  0  0 
  3  4  2  0  0  0  0 
M  END
> <Name>
Methane, isothiocyanato-

> <Source>
DSSTox2DMolFile

> <Tox>
5.417

> <CAS>
556-61-6

$$$$

  CDK

  5  4  0  0  0  0  0  0  0  0999 V2000
    1.7268    1.5294    0.0000 C   0  0  0  0  0  0  0  0  0  0  0  0
    0.8387    1.0361    0.0000 C   0  0  0  0  0  0  0  0  0  0  0  0
    2.5655    0.9867    0.0000 Br  0  0  0  0  0  0  0  0  0  0  0  0
    0.8387    0.0000    0.0000 Br  0  0  0  0  0  0  0  0  0  0  0  0
    0.0000    1.4801    0.0000 Br  0  0  0  0  0  0  0  0  0  0  0  0
  1  2  2  0  0  0  0 
  1  3  1  0  0  0  0 
  2  4  1  0  0  0  0 
  2  5  1  0  0  0  0 
M  END
> <Name>
Ethylene, tribromo- (VAN) (8CI)

> <Source>
NIST2DMolFile

> <Tox>
4.329

> <CAS>
598-16-3

$$$$

  CDK

 10 10  0  0  0  0  0  0  0  0999 V2000
    5.3182   -2.3028    0.0000 O   0  0  0  0  0  0  0  0  0  0  0  0
    3.9887   -2.3028    0.0000 C   0  0  0  0  0  0  0  0  0  0  0  0
    3.3239   -3.4568    0.0000 C   0  0  0  0  0  0  0  0  0  0  0  0
    3.3239   -1.1487    0.0000 C   0  0  0  0  0  0  0  0  0  0  0  0
    1.9943   -3.4568    0.0000 C   0  0  0  0  0  0  0  0  0  0  0  0
    1.9943   -1.1487    0.0000 C   0  0  0  0  0  0  0  0  0  0  0  0
    1.3296   -4.6056    0.0000 Cl  0  0  0  0  0  0  0  0  0  0  0  0
    1.3296   -2.3028    0.0000 C   0  0  0  0  0  0  0  0  0  0  0  0
    1.3296   -0.0000    0.0000 Cl  0  0  0  0  0  0  0  0  0  0  0  0
    0.0000   -2.3028    0.0000 Cl  0  0  0  0  0  0  0  0  0  0  0  0
  1  2  1  0  0  0  0 
  2  3  2  0  0  0  0 
  2  4  1  0  0  0  0 
  3  5  1  0  0  0  0 
  6  4  2  0  0  0  0 
  5  7  1  0  0  0  0 
  5  8  2  0  0  0  0 
  8  6  1  0  0  0  0 
  6  9  1  0  0  0  0 
  8 10  1  0  0  0  0 
M  END
> <Name>
Phenol, 3,4,5-trichloro-

> <Source>
DSSTox2DMolFile

> <Tox>
5.463

> <CAS>
609-19-8

$$$$

  CDK

  7  7  0  0  0  0  0  0  0  0999 V2000
    0.0000   -2.3405    0.0000 O   0  0  0  0  0  0  0  0  0  0  0  0
    1.3291   -2.3405    0.0000 C   0  0  0  0  0  0  0  0  0  0  0  0
    2.1116   -1.2642    0.0000 N   0  0  0  0  0  0  0  0  0  0  0  0
    2.1116   -3.4168    0.0000 C   0  0  0  0  0  0  0  0  0  0  0  0
    3.3758   -1.6742    0.0000 C   0  0  0  0  0  0  0  0  0  0  0  0
    1.7015   -0.0000    0.0000 C   0  0  0  0  0  0  0  0  0  0  0  0
    3.3758   -3.0067    0.0000 C   0  0  0  0  0  0  0  0  0  0  0  0
  1  2  2  0  0  0  0 
  2  3  1  0  0  0  0 
  2  4  1  0  0  0  0 
  3  5  1  0  0  0  0 
  3  6  1  0  0  0  0 
  7  4  1  0  0  0  0 
  5  7  1  0  0  0  0 
M  END
> <Name>
2-Pyrrolidinone, 1-methyl-

> <Source>
DSSTox2DMolFile

> <Tox>
4.906

> <CAS>
872-50-4

$$$$

  CDK

 14 14  0  0  0  0  0  0  0  0999 V2000
    2.2580   -2.3071    0.0000 P   0  0  0  0  0  0  0  0  0  0  0  0
    3.5693   -2.6507    0.0000 S   0  0  0  0  0  0  0  0  0  0  0  0
    2.9522   -3.4431    0.0000 O   0  0  0  0  0  0  0  0  0  0  0  0
    1.1500   -2.9522    0.0000 C   0  0  0  0  0  0  0  0  0  0  0  0
    2.2580   -0.9817    0.0000 S   0  0  0  0  0  0  0  0  0  0  0  0
    4.6772   -1.9915    0.0000 C   0  0  0  0  0  0  0  0  0  0  0  0
    4.2775   -3.4431    0.0000 C   0  0  0  0  0  0  0  0  0  0  0  0
    0.0000   -2.3071    0.0000 C   0  0  0  0  0  0  0  0  0  0  0  0
    5.8623   -2.6507    0.0000 C   0  0  0  0  0  0  0  0  0  0  0  0
    4.6772   -0.6662    0.0000 C   0  0  0  0  0  0  0  0  0  0  0  0
    4.9437   -4.6422    0.0000 C   0  0  0  0  0  0  0  0  0  0  0  0
    7.0123   -1.9915    0.0000 C   0  0  0  0  0  0  0  0  0  0  0  0
    5.8623   -0.0000    0.0000 C   0  0  0  0  0  0  0  0  0  0  0  0
    7.0123   -0.6662    0.0000 C   0  0  0  0  0  0  0  0  0  0  0  0
  1  2  1  0  0  0  0 
  1  3  1  0  0  0  0 
  1  4  1  0  0  0  0 
  1  5  2  0  0  0  0 
  2  6  1  0  0  0  0 
  3  7  1  0  0  0  0 
  4  8  1  0  0  0  0 
  6  9  2  0  0  0  0 
  6 10  1  0  0  0  0 
  7 11  1  0  0  0  0 
  9 12  1  0  0  0  0 
 10 13  2  0  0  0  0 
 12 14  2  0  0  0  0 
 13 14  1  0  0  0  0 
M  END
> <Name>
Phosphonodithioic acid, ethyl-, O-ethyl S-phenyl ester

> <Source>
DSSTox2DMolFile

> <Tox>
7.960

> <CAS>
944-22-9

$$$$

  CDK

 14 16  0  0  0  0  0  0  0  0999 V2000
    0.0000    0.0000    0.0000 O   0  0  0  0  0  0  0  0  0  0  0  0
    0.0000   -0.3400   -1.4200 S   0  0  0  0  0  0  0  0  0  0  0  0
   -1.4200   -1.2800   -1.7400 C   0  0  0  0  0  0  0  0  0  0  0  0
    1.0200   -1.7400   -1.6400 C   0  0  0  0  0  0  0  0  0  0  0  0
   -1.1000   -2.6200   -2.0000 C   0  0  0  0  0  0  0  0  0  0  0  0
   -2.7000   -0.7600   -1.7600 C   0  0  0  0  0  0  0  0  0  0  0  0
    0.2800   -2.8600   -1.9400 C   0  0  0  0  0  0  0  0  0  0  0  0
    2.4200   -1.7000   -1.5000 C   0  0  0  0  0  0  0  0  0  0  0  0
   -2.1400   -3.5200   -2.2800 C   0  0  0  0  0  0  0  0  0  0  0  0
   -3.7400   -1.6600   -2.0400 C   0  0  0  0  0  0  0  0  0  0  0  0
    0.9600   -4.0800   -2.1200 C   0  0  0  0  0  0  0  0  0  0  0  0
    3.0800   -2.9200   -1.7200 C   0  0  0  0  0  0  0  0  0  0  0  0
   -3.4800   -3.0200   -2.3000 C   0  0  0  0  0  0  0  0  0  0  0  0
    2.3600   -4.1000   -2.0200 C   0  0  0  0  0  0  0  0  0  0  0  0
  1  2  2  0  0  0  0 
  2  3  1  0  0  0  0 
  2  4  1  0  0  0  0 
  3  5  2  0  0  0  0 
  3  6  1  0  0  0  0 
  7  4  2  0  0  0  0 
  4  8  1  0  0  0  0 
  5  9  1  0  0  0  0 
  5  7  1  0  0  0  0 
 10  6  2  0  0  0  0 
  7 11  1  0  0  0  0 
  8 12  2  0  0  0  0 
  9 13  2  0  0  0  0 
 13 10  1  0  0  0  0 
 14 11  2  0  0  0  0 
 12 14  1  0  0  0  0 
M  END
> <Name>
Dibenzothiophene, 5-oxide (8CI)(9CI)

> <Source>
NIH3DMolFile

> <Tox>
4.001

> <CAS>
1013-23-6

$$$$

  CDK

 11 10  0  0  0  0  0  0  0  0999 V2000
    2.6950   -0.0000    0.0000 C   0  0  0  0  0  0  0  0  0  0  0  0
    3.3348   -1.1663    0.0000 C   0  0  0  0  0  0  0  0  0  0  0  0
    4.6654   -1.2003    0.0000 C   0  0  0  0  0  0  0  0  0  0  0  0
    2.6384   -2.3044    0.0000 O   0  0  0  0  0  0  0  0  0  0  0  0
    1.3362   -2.3270    0.0000 P   0  0  0  0  0  0  0  0  0  0  0  0
    1.3362   -3.6632    0.0000 O   0  0  0  0  0  0  0  0  0  0  0  0
    1.3362   -0.9965    0.0000 O   0  0  0  0  0  0  0  0  0  0  0  0
    0.0000   -2.3270    0.0000 C   0  0  0  0  0  0  0  0  0  0  0  0
    2.4856   -4.3313    0.0000 C   0  0  0  0  0  0  0  0  0  0  0  0
    3.6462   -3.6632    0.0000 C   0  0  0  0  0  0  0  0  0  0  0  0
    2.4856   -5.6618    0.0000 C   0  0  0  0  0  0  0  0  0  0  0  0
  1  2  1  0  0  0  0 
  3  2  1  0  0  0  0 
  2  4  1  0  0  0  0 
  4  5  1  0  0  0  0 
  6  5  1  0  0  0  0 
  7  5  2  0  0  0  0 
  5  8  1  0  0  0  0 
  9  6  1  0  0  0  0 
 10  9  1  0  0  0  0 
 11  9  1  0  0  0  0 
M  END
> <Name>
Phosphonic acid, methyl-, bis(1-methylethyl) ester

> <Source>
DSSTox2DMolFile

> <Tox>
2.829

> <CAS>
1445-75-6

$$$$

  CDK

 22 24  0  0  0  0  0  0  0  0999 V2000
    3.1875   -4.1191    0.0000 C   0  0  0  0  0  0  0  0  0  0  0  0
    2.0002   -3.4341    0.0000 C   0  0  0  0  0  0  0  0  0  0  0  0
    4.3748   -3.4341    0.0000 C   0  0  0  0  0  0  0  0  0  0  0  0
    3.1875   -5.4891    0.0000 C   0  0  0  0  0  0  0  0  0  0  0  0
    3.1875   -2.9318    0.0000 C   0  0  0  0  0  0  0  0  0  0  0  0
    0.8129   -4.1191    0.0000 C   0  0  0  0  0  0  0  0  0  0  0  0
    5.5713   -4.1191    0.0000 C   0  0  0  0  0  0  0  0  0  0  0  0
    4.3748   -2.0550    0.0000 C   0  0  0  0  0  0  0  0  0  0  0  0
    2.0002   -6.1740    0.0000 C   0  0  0  0  0  0  0  0  0  0  0  0
    4.3748   -6.1740    0.0000 C   0  0  0  0  0  0  0  0  0  0  0  0
    0.8129   -5.4891    0.0000 C   0  0  0  0  0  0  0  0  0  0  0  0
    5.5713   -5.4891    0.0000 C   0  0  0  0  0  0  0  0  0  0  0  0
    6.7586   -3.4341    0.0000 C   0  0  0  0  0  0  0  0  0  0  0  0
    5.5713   -1.3700    0.0000 C   0  0  0  0  0  0  0  0  0  0  0  0
    2.6669   -7.2700    0.0000 C   0  0  0  0  0  0  0  0  0  0  0  0
    0.9225   -6.8042    0.0000 C   0  0  0  0  0  0  0  0  0  0  0  0
    6.7586   -2.0550    0.0000 C   0  0  0  0  0  0  0  0  0  0  0  0
    1.1782   -7.9459    0.0000 O   0  0  0  0  0  0  0  0  0  0  0  0
    0.0000   -6.3932    0.0000 O   0  0  0  0  0  0  0  0  0  0  0  0
    7.9459   -1.3700    0.0000 C   0  0  0  0  0  0  0  0  0  0  0  0
    9.1332   -2.0550    0.0000 C   0  0  0  0  0  0  0  0  0  0  0  0
    7.9459   -0.0000    0.0000 C   0  0  0  0  0  0  0  0  0  0  0  0
  1  2  1  0  0  0  0 
  1  3  1  0  0  0  0 
  1  4  1  0  0  0  0 
  1  5  1  1  0  0  0 
  2  6  1  0  0  0  0 
  7  3  1  0  0  0  0 
  3  8  2  0  0  0  0 
  4  9  1  0  0  0  0 
  4 10  1  0  0  0  0 
  6 11  1  0  0  0  0 
  7 12  1  0  0  0  0 
  7 13  2  0  0  0  0 
 14  8  1  0  0  0  0 
  9 11  1  0  0  0  0 
  9 15  1  1  0  0  0 
  9 16  1  6  0  0  0 
 12 10  1  0  0  0  0 
 17 13  1  0  0  0  0 
 17 14  2  0  0  0  0 
 16 18  2  0  0  0  0 
 16 19  1  0  0  0  0 
 17 20  1  0  0  0  0 
 20 21  1  0  0  0  0 
 20 22  1  0  0  0  0 
M  END
> <Name>
(1R-(1alpha,4Abeta,10aalpha))-1,2,3,4,4a,9,10,10a-octahydro-7-isopropyl-1,4a-dimethylphenanthren-1-carboxylic acid

> <Source>
DSSTox2DMolFile

> <Tox>
4.560

> <CAS>
1740-19-8

$$$$

  CDK

 14 14  0  0  0  0  0  0  0  0999 V2000
    5.9846   -0.0000    0.0000 Cl  0  0  0  0  0  0  0  0  0  0  0  0
    5.3223   -1.1570    0.0000 C   0  0  0  0  0  0  0  0  0  0  0  0
    5.9846   -2.3061    0.0000 N   0  0  0  0  0  0  0  0  0  0  0  0
    3.9898   -1.1570    0.0000 N   0  0  0  0  0  0  0  0  0  0  0  0
    5.3223   -3.4551    0.0000 C   0  0  0  0  0  0  0  0  0  0  0  0
    3.3275   -2.3061    0.0000 C   0  0  0  0  0  0  0  0  0  0  0  0
    3.9898   -3.4551    0.0000 N   0  0  0  0  0  0  0  0  0  0  0  0
    5.9846   -4.6122    0.0000 N   0  0  0  0  0  0  0  0  0  0  0  0
    1.9949   -2.3061    0.0000 N   0  0  0  0  0  0  0  0  0  0  0  0
    7.3172   -4.6122    0.0000 C   0  0  0  0  0  0  0  0  0  0  0  0
    1.3326   -3.4551    0.0000 C   0  0  0  0  0  0  0  0  0  0  0  0
    7.9795   -5.7612    0.0000 C   0  0  0  0  0  0  0  0  0  0  0  0
    1.9949   -4.6122    0.0000 C   0  0  0  0  0  0  0  0  0  0  0  0
    0.0000   -3.4551    0.0000 C   0  0  0  0  0  0  0  0  0  0  0  0
  1  2  1  0  0  0  0 
  2  3  2  0  0  0  0 
  2  4  1  0  0  0  0 
  3  5  1  0  0  0  0 
  6  4  2  0  0  0  0 
  5  7  2  0  0  0  0 
  5  8  1  0  0  0  0 
  7  6  1  0  0  0  0 
  6  9  1  0  0  0  0 
  8 10  1  0  0  0  0 
  9 11  1  0  0  0  0 
 10 12  1  0  0  0  0 
 11 13  1  0  0  0  0 
 11 14  1  0  0  0  0 
M  END
> <Name>
1,3,5-Triazine-2,4-diamine, 6-chloro-N-ethyl-N'-(1-methylethyl)-

> <Source>
DSSTox2DMolFile

> <Tox>
4.361

> <CAS>
1912-24-9

$$$$

  CDK

 11 11  0  0  0  0  0  0  0  0999 V2000
    2.6581   -1.1545    0.0000 C   0  0  0  0  0  0  0  0  0  0  0  0
    1.9971   -0.0000    0.0000 Cl  0  0  0  0  0  0  0  0  0  0  0  0
    3.9895   -1.1545    0.0000 C   0  0  0  0  0  0  0  0  0  0  0  0
    1.9971   -2.3043    0.0000 C   0  0  0  0  0  0  0  0  0  0  0  0
    4.6552   -2.3043    0.0000 C   0  0  0  0  0  0  0  0  0  0  0  0
    2.6581   -3.4588    0.0000 C   0  0  0  0  0  0  0  0  0  0  0  0
    0.6657   -2.3043    0.0000 C   0  0  0  0  0  0  0  0  0  0  0  0
    3.9895   -3.4588    0.0000 C   0  0  0  0  0  0  0  0  0  0  0  0
    1.9971   -4.6086    0.0000 Cl  0  0  0  0  0  0  0  0  0  0  0  0
    0.0000   -3.4588    0.0000 O   0  0  0  0  0  0  0  0  0  0  0  0
    0.0000   -1.1545    0.0000 N   0  0  0  0  0  0  0  0  0  0  0  0
  1  2  1  0  0  0  0 
  1  3  2  0  0  0  0 
  1  4  1  0  0  0  0 
  3  5  1  0  0  0  0 
  6  4  2  0  0  0  0 
  4  7  1  0  0  0  0 
  5  8  2  0  0  0  0 
  8  6  1  0  0  0  0 
  6  9  1  0  0  0  0 
  7 10  2  0  0  0  0 
  7 11  1  0  0  0  0 
M  END
> <Name>
Benzamide, 2,6-dichloro-

> <Source>
DSSTox2DMolFile

> <Tox>
2.346

> <CAS>
2008-58-4

$$$$

  CDK

 13 14  0  0  0  0  0  0  0  0999 V2000
   -0.5562   -0.5192    0.0758 C   0  0  0  0  0  0  0  0  0  0  0  0
   -1.4028    0.5812   -0.0903 C   0  0  0  0  0  0  0  0  0  0  0  0
   -1.1237   -1.7837    0.2615 C   0  0  0  0  0  0  0  0  0  0  0  0
    0.9068   -0.3842    0.0598 C   0  0  0  0  0  0  0  0  0  0  0  0
   -2.7881    0.4239   -0.0697 C   0  0  0  0  0  0  0  0  0  0  0  0
   -0.7810    2.1300   -0.3340 Cl  0  0  0  0  0  0  0  0  0  0  0  0
   -2.5038   -1.9403    0.2871 C   0  0  0  0  0  0  0  0  0  0  0  0
    1.6645   -1.1533   -0.8269 C   0  0  0  0  0  0  0  0  0  0  0  0
    1.5479    0.4903    0.9400 C   0  0  0  0  0  0  0  0  0  0  0  0
   -3.3368   -0.8374    0.1217 C   0  0  0  0  0  0  0  0  0  0  0  0
    3.0501   -1.0424   -0.8341 C   0  0  0  0  0  0  0  0  0  0  0  0
    2.9343    0.5914    0.9318 C   0  0  0  0  0  0  0  0  0  0  0  0
    3.6862   -0.1723    0.0450 C   0  0  0  0  0  0  0  0  0  0  0  0
  1  2  1  0  0  0  0 
  1  3  2  0  0  0  0 
  1  4  1  0  0  0  0 
  2  5  2  0  0  0  0 
  2  6  1  0  0  0  0 
  7  3  1  0  0  0  0 
  4  8  1  0  0  0  0 
  4  9  2  0  0  0  0 
  5 10  1  0  0  0  0 
 10  7  2  0  0  0  0 
  8 11  2  0  0  0  0 
 12  9  1  0  0  0  0 
 11 13  1  0  0  0  0 
 13 12  2  0  0  0  0 
M  END
> <Name>
1,1'-Biphenyl, 2-chloro- (9CI)

> <Source>
DougDB3DMolFile

> <Tox>
5.424

> <CAS>
2051-60-7

$$$$

  CDK

  7  6  0  0  0  0  0  0  0  0999 V2000
    0.0000   -2.3052    0.0000 S   0  0  0  0  0  0  0  0  0  0  0  0
    1.3306   -2.3052    0.0000 C   0  0  0  0  0  0  0  0  0  0  0  0
    1.9941   -1.1508    0.0000 N   0  0  0  0  0  0  0  0  0  0  0  0
    1.9941   -3.4560    0.0000 N   0  0  0  0  0  0  0  0  0  0  0  0
    3.3247   -1.1508    0.0000 C   0  0  0  0  0  0  0  0  0  0  0  0
    1.3306   -0.0000    0.0000 C   0  0  0  0  0  0  0  0  0  0  0  0
    3.3247   -3.4560    0.0000 C   0  0  0  0  0  0  0  0  0  0  0  0
  1  2  2  0  0  0  0 
  2  3  1  0  0  0  0 
  2  4  1  0  0  0  0 
  3  5  1  0  0  0  0 
  3  6  1  0  0  0  0 
  4  7  1  0  0  0  0 
M  END
> <Name>
Urea, 1,1,3-trimethyl-2-thio-

> <Source>
DSSTox2DMolFile

> <Tox>
2.186

> <CAS>
2489-77-2

$$$$

  CDK

 20 19  0  0  0  0  0  0  0  0999 V2000
   -1.1868    2.9952    0.0000 C   0  0  0  0  0  0  0  0  0  0  0  0
   -0.5086    2.5254    0.0000 C   0  0  0  0  0  0  0  0  0  0  0  0
    0.1695    2.0555    0.0000 C   0  0  0  0  0  0  0  0  0  0  0  0
    0.8477    1.5857    0.0000 N   0  0  0  0  0  0  0  0  0  0  0  0
    1.5936    1.9381    0.0000 C   0  0  0  0  0  0  0  0  0  0  0  0
    0.7799    0.7635    0.0000 C   0  0  0  0  0  0  0  0  0  0  0  0
    2.3396    2.2904    0.0000 C   0  0  0  0  0  0  0  0  0  0  0  0
    1.4580    0.2936    0.0000 S   0  0  0  0  0  0  0  0  0  0  0  0
    0.0339    0.4111    0.0000 S   0  0  0  0  0  0  0  0  0  0  0  0
    3.0856    2.6428    0.0000 C   0  0  0  0  0  0  0  0  0  0  0  0
   -0.0339   -0.4111    0.0000 S   0  0  0  0  0  0  0  0  0  0  0  0
   -0.7799   -0.7635    0.0000 C   0  0  0  0  0  0  0  0  0  0  0  0
   -1.4580   -0.2936    0.0000 S   0  0  0  0  0  0  0  0  0  0  0  0
   -0.8477   -1.5857    0.0000 N   0  0  0  0  0  0  0  0  0  0  0  0
   -0.1695   -2.0555    0.0000 C   0  0  0  0  0  0  0  0  0  0  0  0
   -1.5936   -1.9381    0.0000 C   0  0  0  0  0  0  0  0  0  0  0  0
    0.5086   -2.5254    0.0000 C   0  0  0  0  0  0  0  0  0  0  0  0
   -2.3396   -2.2904    0.0000 C   0  0  0  0  0  0  0  0  0  0  0  0
    1.1868   -2.9952    0.0000 C   0  0  0  0  0  0  0  0  0  0  0  0
   -3.0856   -2.6428    0.0000 C   0  0  0  0  0  0  0  0  0  0  0  0
  1  2  1  0  0  0  0 
  2  3  1  0  0  0  0 
  3  4  1  0  0  0  0 
  4  5  1  0  0  0  0 
  4  6  1  0  0  0  0 
  5  7  1  0  0  0  0 
  6  8  2  0  0  0  0 
  6  9  1  0  0  0  0 
  7 10  1  0  0  0  0 
  9 11  1  0  0  0  0 
 11 12  1  0  0  0  0 
 12 13  2  0  0  0  0 
 12 14  1  0  0  0  0 
 14 15  1  0  0  0  0 
 14 16  1  0  0  0  0 
 15 17  1  0  0  0  0 
 16 18  1  0  0  0  0 
 17 19  1  0  0  0  0 
 18 20  1  0  0  0  0 
M  END
> <Name>
Thioperoxydicarbonic diamide (((H2N)C(S))2S2), tetrapropyl-

> <Source>
Smiles

> <Tox>
6.186

> <CAS>
2556-42-5

$$$$

  CDK

  8  7  0  0  0  0  0  0  0  0999 V2000
    1.9946   -2.3033    0.0000 C   0  0  0  0  0  0  0  0  0  0  0  0
    3.3259   -2.3033    0.0000 S   0  0  0  0  0  0  0  0  0  0  0  0
    1.3313   -3.4549    0.0000 N   0  0  0  0  0  0  0  0  0  0  0  0
    1.3313   -1.1516    0.0000 N   0  0  0  0  0  0  0  0  0  0  0  0
    0.0000   -3.4549    0.0000 C   0  0  0  0  0  0  0  0  0  0  0  0
    1.9946   -4.6066    0.0000 C   0  0  0  0  0  0  0  0  0  0  0  0
    0.0000   -1.1516    0.0000 C   0  0  0  0  0  0  0  0  0  0  0  0
    1.9946   -0.0000    0.0000 C   0  0  0  0  0  0  0  0  0  0  0  0
  1  2  2  0  0  0  0 
  1  3  1  0  0  0  0 
  1  4  1  0  0  0  0 
  3  5  1  0  0  0  0 
  3  6  1  0  0  0  0 
  4  7  1  0  0  0  0 
  4  8  1  0  0  0  0 
M  END
> <Name>
Urea, 1,1,3,3-tetramethyl-2-thio-

> <Source>
DSSTox2DMolFile

> <Tox>
2.235

> <CAS>
2782-91-4

$$$$

  CDK

 17 16  0  0  0  0  0  0  0  0999 V2000
    3.3345   -1.3113    0.0000 P   0  0  0  0  0  0  0  0  0  0  0  0
    4.6552   -1.3113    0.0000 O   0  0  0  0  0  0  0  0  0  0  0  0
    3.3345   -0.0000    0.0000 S   0  0  0  0  0  0  0  0  0  0  0  0
    2.0045   -1.3113    0.0000 O   0  0  0  0  0  0  0  0  0  0  0  0
    3.3345   -2.6788    0.0000 O   0  0  0  0  0  0  0  0  0  0  0  0
    5.9759   -1.3207    0.0000 P   0  0  0  0  0  0  0  0  0  0  0  0
    1.3113   -2.4634    0.0000 C   0  0  0  0  0  0  0  0  0  0  0  0
    4.4679   -3.3532    0.0000 C   0  0  0  0  0  0  0  0  0  0  0  0
    5.9665   -0.0000    0.0000 S   0  0  0  0  0  0  0  0  0  0  0  0
    7.3434   -1.3301    0.0000 O   0  0  0  0  0  0  0  0  0  0  0  0
    5.9759   -2.6788    0.0000 O   0  0  0  0  0  0  0  0  0  0  0  0
    0.0000   -2.4634    0.0000 C   0  0  0  0  0  0  0  0  0  0  0  0
    4.4679   -4.6552    0.0000 C   0  0  0  0  0  0  0  0  0  0  0  0
    8.0365   -0.2248    0.0000 C   0  0  0  0  0  0  0  0  0  0  0  0
    7.1467   -3.3720    0.0000 C   0  0  0  0  0  0  0  0  0  0  0  0
    9.3666   -0.2248    0.0000 C   0  0  0  0  0  0  0  0  0  0  0  0
    7.1467   -4.6833    0.0000 C   0  0  0  0  0  0  0  0  0  0  0  0
  1  2  1  0  0  0  0 
  1  3  2  0  0  0  0 
  1  4  1  0  0  0  0 
  1  5  1  0  0  0  0 
  6  2  1  0  0  0  0 
  4  7  1  0  0  0  0 
  5  8  1  0  0  0  0 
  6  9  2  0  0  0  0 
  6 10  1  0  0  0  0 
  6 11  1  0  0  0  0 
  7 12  1  0  0  0  0 
  8 13  1  0  0  0  0 
 10 14  1  0  0  0  0 
 11 15  1  0  0  0  0 
 14 16  1  0  0  0  0 
 15 17  1  0  0  0  0 
M  END
> <Name>
Thiodiphosphoric acid (((HO)2P(S))2O), tetraethyl ester (9CI)

> <Source>
DSSTox2DMolFile

> <Tox>
9.147

> <CAS>
3689-24-5

$$$$

  CDK

 41 44  0  0  0  0  0  0  0  0999 V2000
   10.6400    0.0000    0.0000 C   0  0  0  0  0  0  0  0  0  0  0  0
   10.6400    1.4000    0.0000 C   0  0  0  0  0  0  0  0  0  0  0  0
    9.4267    2.1000    0.0000 C   0  0  0  0  0  0  0  0  0  0  0  0
   11.8533    2.1000    0.0000 C   0  0  0  0  0  0  0  0  0  0  0  0
   11.8533    3.5000    0.0000 C   0  0  0  0  0  0  0  0  0  0  0  0
   13.0667    1.4000    0.0000 C   0  0  0  0  0  0  0  0  0  0  0  0
   13.0667    4.2000    0.0000 C   0  0  0  0  0  0  0  0  0  0  0  0
   14.2333    2.1000    0.0000 C   0  0  0  0  0  0  0  0  0  0  0  0
   13.0667    0.0000    0.0000 O   0  0  0  0  0  0  0  0  0  0  0  0
   13.0667    5.6000    0.0000 N   0  0  0  0  0  0  0  0  0  0  0  0
   14.2333    3.5000    0.0000 C   0  0  0  0  0  0  0  0  0  0  0  0
   11.8533    6.3000    0.0000 N   0  0  0  0  0  0  0  0  0  0  0  0
   15.4467    4.2000    0.0000 C   0  0  0  0  0  0  0  0  0  0  0  0
   11.8533    7.7000    0.0000 C   0  0  0  0  0  0  0  0  0  0  0  0
   10.6400    8.4000    0.0000 C   0  0  0  0  0  0  0  0  0  0  0  0
   13.0667    8.4000    0.0000 C   0  0  0  0  0  0  0  0  0  0  0  0
   10.6400    9.8000    0.0000 C   0  0  0  0  0  0  0  0  0  0  0  0
   13.0667    9.8000    0.0000 C   0  0  0  0  0  0  0  0  0  0  0  0
   11.8533   10.5000    0.0000 C   0  0  0  0  0  0  0  0  0  0  0  0
   11.8533   11.9000    0.0000 S   0  0  0  0  0  0  0  0  0  0  0  0
   11.8533   13.3000    0.0000 O   0  0  0  0  0  0  0  0  0  0  0  0
   13.2533   11.9000    0.0000 O   0  0  0  0  0  0  0  0  0  0  0  0
   10.4533   11.9000    0.0000 C   0  0  0  0  0  0  0  0  0  0  0  0
    9.7533   10.6867    0.0000 C   0  0  0  0  0  0  0  0  0  0  0  0
    9.7533   13.1133    0.0000 C   0  0  0  0  0  0  0  0  0  0  0  0
    8.3533   10.6867    0.0000 C   0  0  0  0  0  0  0  0  0  0  0  0
    8.3533   13.1133    0.0000 C   0  0  0  0  0  0  0  0  0  0  0  0
    7.6533   11.9000    0.0000 C   0  0  0  0  0  0  0  0  0  0  0  0
    6.2533   11.9000    0.0000 N   0  0  0  0  0  0  0  0  0  0  0  0
    5.5533   13.1133    0.0000 N   0  0  0  0  0  0  0  0  0  0  0  0
    4.1533   13.1133    0.0000 C   0  0  0  0  0  0  0  0  0  0  0  0
    3.4533   11.9000    0.0000 C   0  0  0  0  0  0  0  0  0  0  0  0
    3.4533   14.3267    0.0000 C   0  0  0  0  0  0  0  0  0  0  0  0
    2.0533   11.9000    0.0000 C   0  0  0  0  0  0  0  0  0  0  0  0
    2.0533   14.3267    0.0000 C   0  0  0  0  0  0  0  0  0  0  0  0
    4.1533   15.4933    0.0000 C   0  0  0  0  0  0  0  0  0  0  0  0
    1.3533   10.6867    0.0000 C   0  0  0  0  0  0  0  0  0  0  0  0
    1.3533   13.1133    0.0000 C   0  0  0  0  0  0  0  0  0  0  0  0
    2.0533    9.5200    0.0000 C   0  0  0  0  0  0  0  0  0  0  0  0
    0.0000   10.6867    0.0000 C   0  0  0  0  0  0  0  0  0  0  0  0
    0.0000   13.1133    0.0000 O   0  0  0  0  0  0  0  0  0  0  0  0
  1  2  1  0  0  0  0 
  2  3  1  0  0  0  0 
  2  4  1  0  0  0  0 
  4  5  2  0  0  0  0 
  4  6  1  0  0  0  0 
  5  7  1  0  0  0  0 
  8  6  2  0  0  0  0 
  6  9  1  0  0  0  0 
  7 10  1  0  0  0  0 
  7 11  2  0  0  0  0 
 11  8  1  0  0  0  0 
 10 12  2  0  0  0  0 
 11 13  1  0  0  0  0 
 12 14  1  0  0  0  0 
 14 15  2  0  0  0  0 
 14 16  1  0  0  0  0 
 15 17  1  0  0  0  0 
 18 16  2  0  0  0  0 
 17 19  2  0  0  0  0 
 19 18  1  0  0  0  0 
 19 20  1  0  0  0  0 
 20 21  2  0  0  0  0 
 20 22  2  0  0  0  0 
 20 23  1  0  0  0  0 
 23 24  1  0  0  0  0 
 23 25  2  0  0  0  0 
 24 26  2  0  0  0  0 
 27 25  1  0  0  0  0 
 26 28  1  0  0  0  0 
 28 27  2  0  0  0  0 
 28 29  1  0  0  0  0 
 29 30  2  0  0  0  0 
 30 31  1  0  0  0  0 
 31 32  2  0  0  0  0 
 31 33  1  0  0  0  0 
 32 34  1  0  0  0  0 
 35 33  2  0  0  0  0 
 33 36  1  0  0  0  0 
 34 37  1  0  0  0  0 
 34 38  2  0  0  0  0 
 38 35  1  0  0  0  0 
 37 39  1  0  0  0  0 
 37 40  1  0  0  0  0 
 38 41  1  0  0  0  0 
M  END
> <Name>
Di(4-(4-hydroxy-2-methyl-5-isopropylphenylazo)phenyl)sulfone

> <Source>
IndexNet2DMolFile

> <Tox>
5.440

> <CAS>
5964-62-5

$$$$

  CDK

 10 10  0  0  0  0  0  0  0  0999 V2000
    0.0000   -0.0000    0.0000 C   0  0  0  0  0  0  0  0  0  0  0  0
    0.6640   -1.1546    0.0000 C   0  0  0  0  0  0  0  0  0  0  0  0
    0.0000   -2.3031    0.0000 C   0  0  0  0  0  0  0  0  0  0  0  0
    1.9921   -1.1546    0.0000 C   0  0  0  0  0  0  0  0  0  0  0  0
    2.6561   -0.0000    0.0000 C   0  0  0  0  0  0  0  0  0  0  0  0
    2.6561   -2.3031    0.0000 C   0  0  0  0  0  0  0  0  0  0  0  0
    3.9901   -0.0000    0.0000 C   0  0  0  0  0  0  0  0  0  0  0  0
    3.9901   -2.3031    0.0000 C   0  0  0  0  0  0  0  0  0  0  0  0
    4.6542   -1.1546    0.0000 C   0  0  0  0  0  0  0  0  0  0  0  0
    5.9822   -1.1546    0.0000 C   0  0  0  0  0  0  0  0  0  0  0  0
  1  2  1  0  0  0  0 
  2  3  2  0  0  0  0 
  4  2  1  6  0  0  0 
  4  5  1  0  0  0  0 
  4  6  1  0  0  0  0 
  5  7  1  0  0  0  0 
  8  6  1  0  0  0  0 
  7  9  1  0  0  0  0 
  9  8  2  0  0  0  0 
  9 10  1  0  0  0  0 
M  END
> <Name>
Cyclohexene, 1-methyl-4-(1-methylethenyl)-, (theta)-

> <Source>
DSSTox2DMolFile

> <Tox>
5.271

> <CAS>
5989-27-5

$$$$

  CDK

  7  6  0  0  0  0  0  0  0  0999 V2000
    3.3292   -2.3053    0.0000 C   0  0  0  0  0  0  0  0  0  0  0  0
    2.6586   -1.1557    0.0000 S   0  0  0  0  0  0  0  0  0  0  0  0
    4.6585   -2.3053    0.0000 S   0  0  0  0  0  0  0  0  0  0  0  0
    1.3293   -1.1557    0.0000 C   0  0  0  0  0  0  0  0  0  0  0  0
    5.3232   -1.1557    0.0000 C   0  0  0  0  0  0  0  0  0  0  0  0
    0.0000   -1.1557    0.0000 N   0  0  0  0  0  0  0  0  0  0  0  0
    5.9878   -0.0000    0.0000 N   0  0  0  0  0  0  0  0  0  0  0  0
  1  2  1  0  0  0  0 
  1  3  1  0  0  0  0 
  2  4  1  0  0  0  0 
  3  5  1  0  0  0  0 
  4  6  3  0  0  0  0 
  5  7  3  0  0  0  0 
M  END
> <Name>
Thiocyanic acid, methylene ester

> <Source>
DSSTox2DMolFile

> <Tox>
6.251

> <CAS>
6317-18-6

$$$$

  CDK

 17 18  0  0  0  0  0  0  0  0999 V2000
    3.4620   -5.8086    0.0000 N   0  0  0  0  0  0  0  0  0  0  0  0
    4.6105   -5.1393    0.0000 C   0  0  0  0  0  0  0  0  0  0  0  0
    2.3053   -5.1393    0.0000 C   0  0  0  0  0  0  0  0  0  0  0  0
    4.6105   -3.8090    0.0000 N   0  0  0  0  0  0  0  0  0  0  0  0
    5.7673   -5.8086    0.0000 N   0  0  0  0  0  0  0  0  0  0  0  0
    2.3053   -3.8090    0.0000 N   0  0  0  0  0  0  0  0  0  0  0  0
    1.1568   -5.8086    0.0000 S   0  0  0  0  0  0  0  0  0  0  0  0
    3.4620   -3.1480    0.0000 C   0  0  0  0  0  0  0  0  0  0  0  0
    6.9323   -5.1806    0.0000 C   0  0  0  0  0  0  0  0  0  0  0  0
    0.0000   -5.1393    0.0000 C   0  0  0  0  0  0  0  0  0  0  0  0
    3.4620   -1.8178    0.0000 N   0  0  0  0  0  0  0  0  0  0  0  0
    8.2625   -5.2137    0.0000 C   0  0  0  0  0  0  0  0  0  0  0  0
    7.6181   -4.0486    0.0000 C   0  0  0  0  0  0  0  0  0  0  0  0
    2.3053   -1.1485    0.0000 C   0  0  0  0  0  0  0  0  0  0  0  0
    2.9745   -0.0000    0.0000 C   0  0  0  0  0  0  0  0  0  0  0  0
    1.6525   -2.3053    0.0000 C   0  0  0  0  0  0  0  0  0  0  0  0
    1.1568   -0.4958    0.0000 C   0  0  0  0  0  0  0  0  0  0  0  0
  1  2  2  0  0  0  0 
  1  3  1  0  0  0  0 
  2  4  1  0  0  0  0 
  2  5  1  0  0  0  0 
  6  3  2  0  0  0  0 
  3  7  1  0  0  0  0 
  4  8  2  0  0  0  0 
  5  9  1  0  0  0  0 
  8  6  1  0  0  0  0 
  7 10  1  0  0  0  0 
  8 11  1  0  0  0  0 
  9 12  1  0  0  0  0 
  9 13  1  0  0  0  0 
 11 14  1  0  0  0  0 
 12 13  1  0  0  0  0 
 14 15  1  0  0  0  0 
 14 16  1  0  0  0  0 
 14 17  1  0  0  0  0 
M  END
> <Name>
N'-tert-Butyl-N-cyclopropyl-6-(methylthio)-1,3,5-triazine-2,4-diamine

> <Source>
DSSTox2DMolFile

> <Tox>
4.485

> <CAS>
28159-98-0

$$$$

  CDK

 12 11  0  0  0  0  0  0  0  0999 V2000
    5.7733   -1.3278    0.0000 C   0  0  0  0  0  0  0  0  0  0  0  0
    5.7733   -0.0000    0.0000 O   0  0  0  0  0  0  0  0  0  0  0  0
    6.9279   -1.9860    0.0000 O   0  0  0  0  0  0  0  0  0  0  0  0
    4.6186   -1.9860    0.0000 N   0  0  0  0  0  0  0  0  0  0  0  0
    8.0941   -1.3278    0.0000 C   0  0  0  0  0  0  0  0  0  0  0  0
    3.4524   -1.3278    0.0000 C   0  0  0  0  0  0  0  0  0  0  0  0
    9.2487   -1.9860    0.0000 C   0  0  0  0  0  0  0  0  0  0  0  0
    2.2978   -1.9860    0.0000 C   0  0  0  0  0  0  0  0  0  0  0  0
   10.4034   -2.6672    0.0000 C   0  0  0  0  0  0  0  0  0  0  0  0
    1.1431   -1.3278    0.0000 C   0  0  0  0  0  0  0  0  0  0  0  0
   11.5465   -3.3254    0.0000 I   0  0  0  0  0  0  0  0  0  0  0  0
    0.0000   -1.9860    0.0000 C   0  0  0  0  0  0  0  0  0  0  0  0
  1  2  2  0  0  0  0 
  1  3  1  0  0  0  0 
  1  4  1  0  0  0  0 
  3  5  1  0  0  0  0 
  4  6  1  0  0  0  0 
  5  7  1  0  0  0  0 
  6  8  1  0  0  0  0 
  7  9  3  0  0  0  0 
  8 10  1  0  0  0  0 
  9 11  1  0  0  0  0 
 10 12  1  0  0  0  0 
M  END
> <Name>
Carbamic acid, butyl-, 3-iodo-2-propynyl ester

> <Source>
DSSTox2DMolFile

> <Tox>
6.847

> <CAS>
55406-53-6

$$$$

  CDK

 22 24  0  0  0  0  0  0  0  0999 V2000
    5.4149   -4.4296    0.0000 C   0  0  0  0  0  0  0  0  0  0  0  0
    6.0658   -5.5686    0.0000 C   0  0  0  0  0  0  0  0  0  0  0  0
    6.0658   -3.2634    0.0000 C   0  0  0  0  0  0  0  0  0  0  0  0
    4.6375   -3.3448    0.0000 O   0  0  0  0  0  0  0  0  0  0  0  0
    4.6104   -5.5053    0.0000 O   0  0  0  0  0  0  0  0  0  0  0  0
    7.3947   -5.5686    0.0000 C   0  0  0  0  0  0  0  0  0  0  0  0
    5.4059   -6.7257    0.0000 C   0  0  0  0  0  0  0  0  0  0  0  0
    5.4059   -2.1153    0.0000 N   0  0  0  0  0  0  0  0  0  0  0  0
    3.3719   -3.7516    0.0000 C   0  0  0  0  0  0  0  0  0  0  0  0
    3.3719   -5.0895    0.0000 C   0  0  0  0  0  0  0  0  0  0  0  0
    8.0546   -6.7257    0.0000 C   0  0  0  0  0  0  0  0  0  0  0  0
    8.0546   -4.4024    0.0000 Cl  0  0  0  0  0  0  0  0  0  0  0  0
    6.0658   -7.8738    0.0000 C   0  0  0  0  0  0  0  0  0  0  0  0
    5.9212   -0.8859    0.0000 C   0  0  0  0  0  0  0  0  0  0  0  0
    4.0861   -1.9707    0.0000 N   0  0  0  0  0  0  0  0  0  0  0  0
    2.3052   -2.9651    0.0000 C   0  0  0  0  0  0  0  0  0  0  0  0
    7.3947   -7.8738    0.0000 C   0  0  0  0  0  0  0  0  0  0  0  0
    4.9539   -0.0000    0.0000 N   0  0  0  0  0  0  0  0  0  0  0  0
    3.7968   -0.6870    0.0000 C   0  0  0  0  0  0  0  0  0  0  0  0
    1.0667   -3.4985    0.0000 C   0  0  0  0  0  0  0  0  0  0  0  0
    8.0817   -9.0399    0.0000 Cl  0  0  0  0  0  0  0  0  0  0  0  0
    0.0000   -2.7120    0.0000 C   0  0  0  0  0  0  0  0  0  0  0  0
  1  2  1  0  0  0  0 
  1  3  1  0  0  0  0 
  1  4  1  0  0  0  0 
  1  5  1  0  0  0  0 
  2  6  2  0  0  0  0 
  2  7  1  0  0  0  0 
  3  8  1  0  0  0  0 
  4  9  1  0  0  0  0 
  5 10  1  0  0  0  0 
  6 11  1  0  0  0  0 
  6 12  1  0  0  0  0 
  7 13  2  0  0  0  0 
  8 14  1  0  0  0  0 
  8 15  1  0  0  0  0 
  9 16  1  0  0  0  0 
  9 10  1  0  0  0  0 
 11 17  2  0  0  0  0 
 13 17  1  0  0  0  0 
 14 18  2  0  0  0  0 
 15 19  2  0  0  0  0 
 16 20  1  0  0  0  0 
 17 21  1  0  0  0  0 
 18 19  1  0  0  0  0 
 20 22  1  0  0  0  0 
M  END
> <Name>
1H-1,2,4-Triazole, 1-((2-(2,4-dichlorophenyl)-4-propyl-1,3-dioxolan-2-yl)methyl)-

> <Source>
DSSTox2DMolFile

> <Tox>
4.720

> <CAS>
60207-90-1

$$$$
