
  CDK

 11 11  0  0  0  0  0  0  0  0999 V2000
    5.3194   -2.3037    0.0000 C   0  0  0  0  0  0  0  0  0  0  0  0
    5.9835   -1.1488    0.0000 O   0  0  0  0  0  0  0  0  0  0  0  0
    5.9835   -3.4525    0.0000 O   0  0  0  0  0  0  0  0  0  0  0  0
    3.9910   -2.3037    0.0000 C   0  0  0  0  0  0  0  0  0  0  0  0
    3.3269   -3.4525    0.0000 C   0  0  0  0  0  0  0  0  0  0  0  0
    3.3269   -1.1488    0.0000 C   0  0  0  0  0  0  0  0  0  0  0  0
    1.9925   -3.4525    0.0000 C   0  0  0  0  0  0  0  0  0  0  0  0
    1.9925   -1.1488    0.0000 C   0  0  0  0  0  0  0  0  0  0  0  0
    3.9910   -0.0000    0.0000 Cl  0  0  0  0  0  0  0  0  0  0  0  0
    1.3283   -2.3037    0.0000 C   0  0  0  0  0  0  0  0  0  0  0  0
    0.0000   -2.3037    0.0000 Cl  0  0  0  0  0  0  0  0  0  0  0  0
  1  2  2  0  0  0  0 
  1  3  1  0  0  0  0 
  1  4  1  0  0  0  0 
  4  5  2  0  0  0  0 
  4  6  1  0  0  0  0 
  5  7  1  0  0  0  0 
  8  6  2  0  0  0  0 
  6  9  1  0  0  0  0 
  7 10  2  0  0  0  0 
 10  8  1  0  0  0  0 
 10 11  1  0  0  0  0 
M  END
> <Name>
Benzoic acid, 2,4-dichloro-

> <Source>
DSSTox2DMolFile

> <Tox>
2.610

> <CAS>
50-84-0

$$$$

  CDK

  6  5  0  0  0  0  0  0  0  0999 V2000
    4.6084   -1.9954    0.0000 N   0  0  0  0  0  0  0  0  0  0  0  0
    3.4563   -1.3318    0.0000 C   0  0  0  0  0  0  0  0  0  0  0  0
    3.4563   -0.0000    0.0000 O   0  0  0  0  0  0  0  0  0  0  0  0
    2.3042   -1.9954    0.0000 O   0  0  0  0  0  0  0  0  0  0  0  0
    1.1521   -1.3318    0.0000 C   0  0  0  0  0  0  0  0  0  0  0  0
    0.0000   -1.9954    0.0000 C   0  0  0  0  0  0  0  0  0  0  0  0
  1  2  1  0  0  0  0 
  2  3  2  0  0  0  0 
  2  4  1  0  0  0  0 
  4  5  1  0  0  0  0 
  5  6  1  0  0  0  0 
M  END
> <Name>
Carbamic acid, ethyl ester

> <Source>
DSSTox2DMolFile

> <Tox>
1.350

> <CAS>
51-79-6

$$$$

  CDK

 11 11  0  0  0  0  0  0  0  0999 V2000
    1.3317   -4.6078    0.0000 O   0  0  0  0  0  0  0  0  0  0  0  0
    1.9952   -3.4558    0.0000 C   0  0  0  0  0  0  0  0  0  0  0  0
    1.3317   -2.3039    0.0000 C   0  0  0  0  0  0  0  0  0  0  0  0
    3.3268   -3.4558    0.0000 C   0  0  0  0  0  0  0  0  0  0  0  0
    0.0000   -2.3039    0.0000 Cl  0  0  0  0  0  0  0  0  0  0  0  0
    1.9952   -1.1519    0.0000 C   0  0  0  0  0  0  0  0  0  0  0  0
    3.9904   -2.3039    0.0000 C   0  0  0  0  0  0  0  0  0  0  0  0
    3.9904   -4.6078    0.0000 Cl  0  0  0  0  0  0  0  0  0  0  0  0
    1.3317   -0.0000    0.0000 Cl  0  0  0  0  0  0  0  0  0  0  0  0
    3.3268   -1.1519    0.0000 C   0  0  0  0  0  0  0  0  0  0  0  0
    3.9904   -0.0000    0.0000 Cl  0  0  0  0  0  0  0  0  0  0  0  0
  1  2  1  0  0  0  0 
  2  3  2  0  0  0  0 
  2  4  1  0  0  0  0 
  3  5  1  0  0  0  0 
  3  6  1  0  0  0  0 
  7  4  2  0  0  0  0 
  4  8  1  0  0  0  0 
  6  9  1  0  0  0  0 
  6 10  2  0  0  0  0 
 10  7  1  0  0  0  0 
 10 11  1  0  0  0  0 
M  END
> <Name>
Phenol, 2,3,4,6-tetrachloro-

> <Source>
DSSTox2DMolFile

> <Tox>
5.180

> <CAS>
58-90-2

$$$$

  CDK

  9  9  0  0  0  0  0  0  0  0999 V2000
    0.0000   -2.3037    0.0000 O   0  0  0  0  0  0  0  0  0  0  0  0
    0.6655   -1.1542    0.0000 C   0  0  0  0  0  0  0  0  0  0  0  0
    0.0000   -0.0000    0.0000 O   0  0  0  0  0  0  0  0  0  0  0  0
    1.9965   -1.1542    0.0000 C   0  0  0  0  0  0  0  0  0  0  0  0
    2.6574   -0.0000    0.0000 C   0  0  0  0  0  0  0  0  0  0  0  0
    2.6574   -2.3037    0.0000 C   0  0  0  0  0  0  0  0  0  0  0  0
    3.9884   -0.0000    0.0000 C   0  0  0  0  0  0  0  0  0  0  0  0
    3.9884   -2.3037    0.0000 C   0  0  0  0  0  0  0  0  0  0  0  0
    4.6539   -1.1542    0.0000 C   0  0  0  0  0  0  0  0  0  0  0  0
  1  2  1  0  0  0  0 
  2  3  2  0  0  0  0 
  2  4  1  0  0  0  0 
  4  5  2  0  0  0  0 
  4  6  1  0  0  0  0 
  5  7  1  0  0  0  0 
  8  6  2  0  0  0  0 
  7  9  2  0  0  0  0 
  9  8  1  0  0  0  0 
M  END
> <Name>
Benzoic acid

> <Source>
DSSTox2DMolFile

> <Tox>
2.700

> <CAS>
65-85-0

$$$$

  CDK

  7  6  0  0  0  0  0  0  0  0999 V2000
    0.0000   -0.6638    0.0000 C   0  0  0  0  0  0  0  0  0  0  0  0
    1.1548   -0.0000    0.0000 C   0  0  0  0  0  0  0  0  0  0  0  0
    2.3027   -0.6638    0.0000 C   0  0  0  0  0  0  0  0  0  0  0  0
    3.4575   -0.0000    0.0000 C   0  0  0  0  0  0  0  0  0  0  0  0
    4.6122   -0.6638    0.0000 C   0  0  0  0  0  0  0  0  0  0  0  0
    5.7601   -0.0000    0.0000 C   0  0  0  0  0  0  0  0  0  0  0  0
    6.9149   -0.6638    0.0000 O   0  0  0  0  0  0  0  0  0  0  0  0
  1  2  1  0  0  0  0 
  2  3  1  0  0  0  0 
  3  4  1  0  0  0  0 
  4  5  1  0  0  0  0 
  5  6  1  0  0  0  0 
  6  7  2  0  0  0  0 
M  END
> <Name>
Hexaldehyde

> <Source>
DSSTox2DMolFile

> <Tox>
2.827

> <CAS>
66-25-1

$$$$

  CDK

 13 13  0  0  0  0  0  0  0  0999 V2000
    2.4901    1.7787    0.0000 C   0  0  0  0  0  0  0  0  0  0  0  0
    1.4737    1.7787    0.0000 C   0  0  0  0  0  0  0  0  0  0  0  0
    2.9983    2.5918    0.0000 C   0  0  0  0  0  0  0  0  0  0  0  0
    2.9983    0.8639    0.0000 N   0  0  0  0  0  0  0  0  0  0  0  0
    0.9656    2.5918    0.0000 C   0  0  0  0  0  0  0  0  0  0  0  0
    0.9656    0.8639    0.0000 N   0  0  0  0  0  0  0  0  0  0  0  0
    2.4901    3.4557    0.0000 C   0  0  0  0  0  0  0  0  0  0  0  0
    4.0147    0.8639    0.0000 O   0  0  0  0  0  0  0  0  0  0  0  0
    2.4901    0.0000    0.0000 O   0  0  0  0  0  0  0  0  0  0  0  0
    1.4737    3.4557    0.0000 C   0  0  0  0  0  0  0  0  0  0  0  0
    0.0000    2.5918    0.0000 O   0  0  0  0  0  0  0  0  0  0  0  0
    1.4737    0.0000    0.0000 O   0  0  0  0  0  0  0  0  0  0  0  0
    0.0000    0.8639    0.0000 O   0  0  0  0  0  0  0  0  0  0  0  0
  2  1  2  0  0  0  0 
  1  3  1  0  0  0  0 
  1  4  1  0  0  0  0 
  5  2  1  0  0  0  0 
  2  6  1  0  0  0  0 
  3  7  2  0  0  0  0 
  4  8  2  0  0  0  0 
  4  9  2  0  0  0  0 
 10  5  2  0  0  0  0 
  5 11  1  0  0  0  0 
  6 12  2  0  0  0  0 
  6 13  2  0  0  0  0 
  7 10  1  0  0  0  0 
M  END
> <Name>
Phenol, 2,3-dinitro-

> <Source>
NIST2DMolFile

> <Tox>
3.460

> <CAS>
66-56-8

$$$$

  CDK

 25 28  0  0  0  0  0  0  0  0999 V2000
    5.7947   -5.4884    0.0000 O   0  0  0  0  0  0  0  0  0  0  0  0
    4.6640   -4.8407    0.0000 C   0  0  0  0  0  0  0  0  0  0  0  0
    3.6747   -5.6769    0.0000 O   0  0  0  0  0  0  0  0  0  0  0  0
    4.4402   -3.5569    0.0000 C   0  0  0  0  0  0  0  0  0  0  0  0
    2.4498   -5.2293    0.0000 C   0  0  0  0  0  0  0  0  0  0  0  0
    3.2153   -3.1093    0.0000 C   0  0  0  0  0  0  0  0  0  0  0  0
    5.5238   -2.2613    0.0000 C   0  0  0  0  0  0  0  0  0  0  0  0
    1.4487   -6.0656    0.0000 C   0  0  0  0  0  0  0  0  0  0  0  0
    2.2260   -3.9456    0.0000 C   0  0  0  0  0  0  0  0  0  0  0  0
    2.9916   -1.8256    0.0000 O   0  0  0  0  0  0  0  0  0  0  0  0
    7.2198   -2.2613    0.0000 C   0  0  0  0  0  0  0  0  0  0  0  0
    0.2238   -5.6180    0.0000 C   0  0  0  0  0  0  0  0  0  0  0  0
    1.0011   -3.4980    0.0000 C   0  0  0  0  0  0  0  0  0  0  0  0
    7.8675   -3.3802    0.0000 C   0  0  0  0  0  0  0  0  0  0  0  0
    7.8675   -1.1307    0.0000 C   0  0  0  0  0  0  0  0  0  0  0  0
    0.0000   -4.3342    0.0000 C   0  0  0  0  0  0  0  0  0  0  0  0
    7.4318   -4.6051    0.0000 O   0  0  0  0  0  0  0  0  0  0  0  0
    9.1749   -3.3802    0.0000 C   0  0  0  0  0  0  0  0  0  0  0  0
    9.1749   -1.1307    0.0000 O   0  0  0  0  0  0  0  0  0  0  0  0
    7.2198   -0.0000    0.0000 O   0  0  0  0  0  0  0  0  0  0  0  0
    9.8227   -4.5109    0.0000 C   0  0  0  0  0  0  0  0  0  0  0  0
    9.8227   -2.2613    0.0000 C   0  0  0  0  0  0  0  0  0  0  0  0
   11.1300   -4.5109    0.0000 C   0  0  0  0  0  0  0  0  0  0  0  0
   11.1300   -2.2613    0.0000 C   0  0  0  0  0  0  0  0  0  0  0  0
   11.7778   -3.3802    0.0000 C   0  0  0  0  0  0  0  0  0  0  0  0
  1  2  2  0  0  0  0 
  2  3  1  0  0  0  0 
  2  4  1  0  0  0  0 
  3  5  1  0  0  0  0 
  6  4  2  0  0  0  0 
  4  7  1  0  0  0  0 
  5  8  2  0  0  0  0 
  5  9  1  0  0  0  0 
  9  6  1  0  0  0  0 
  6 10  1  0  0  0  0 
  7 11  1  0  0  0  0 
  8 12  1  0  0  0  0 
 13  9  2  0  0  0  0 
 11 14  2  0  0  0  0 
 11 15  1  0  0  0  0 
 12 16  2  0  0  0  0 
 16 13  1  0  0  0  0 
 14 17  1  0  0  0  0 
 14 18  1  0  0  0  0 
 19 15  1  0  0  0  0 
 15 20  2  0  0  0  0 
 18 21  2  0  0  0  0 
 18 22  1  0  0  0  0 
 22 19  1  0  0  0  0 
 21 23  1  0  0  0  0 
 24 22  2  0  0  0  0 
 23 25  2  0  0  0  0 
 25 24  1  0  0  0  0 
M  END
> <Name>
2H-1-Benzopyran-2-one, 3,3'-methylenebis(4-hydroxy-

> <Source>
DSSTox2DMolFile

> <Tox>
4.700

> <CAS>
66-76-2

$$$$

  CDK

 21 22  0  0  0  0  0  0  0  0999 V2000
    2.3028   -5.3074    0.0000 O   0  0  0  0  0  0  0  0  0  0  0  0
    2.3028   -3.9830    0.0000 C   0  0  0  0  0  0  0  0  0  0  0  0
    1.1465   -3.3208    0.0000 C   0  0  0  0  0  0  0  0  0  0  0  0
    3.4493   -3.3208    0.0000 C   0  0  0  0  0  0  0  0  0  0  0  0
    1.1465   -1.9866    0.0000 C   0  0  0  0  0  0  0  0  0  0  0  0
    0.0000   -3.9830    0.0000 Cl  0  0  0  0  0  0  0  0  0  0  0  0
    3.4493   -1.9866    0.0000 C   0  0  0  0  0  0  0  0  0  0  0  0
    4.9417   -4.1807    0.0000 C   0  0  0  0  0  0  0  0  0  0  0  0
    2.3028   -1.3244    0.0000 C   0  0  0  0  0  0  0  0  0  0  0  0
    4.1115   -1.5912    0.0000 Cl  0  0  0  0  0  0  0  0  0  0  0  0
    6.4341   -3.3208    0.0000 C   0  0  0  0  0  0  0  0  0  0  0  0
    2.3028   -0.0000    0.0000 Cl  0  0  0  0  0  0  0  0  0  0  0  0
    6.4341   -1.9866    0.0000 C   0  0  0  0  0  0  0  0  0  0  0  0
    7.5805   -3.9830    0.0000 C   0  0  0  0  0  0  0  0  0  0  0  0
    7.5805   -1.3244    0.0000 C   0  0  0  0  0  0  0  0  0  0  0  0
    5.4655   -1.3936    0.0000 O   0  0  0  0  0  0  0  0  0  0  0  0
    8.7369   -3.3208    0.0000 C   0  0  0  0  0  0  0  0  0  0  0  0
    7.5805   -5.3074    0.0000 Cl  0  0  0  0  0  0  0  0  0  0  0  0
    8.7369   -1.9866    0.0000 C   0  0  0  0  0  0  0  0  0  0  0  0
    7.5805   -0.0000    0.0000 Cl  0  0  0  0  0  0  0  0  0  0  0  0
    9.8833   -3.9830    0.0000 Cl  0  0  0  0  0  0  0  0  0  0  0  0
  1  2  1  0  0  0  0 
  2  3  2  0  0  0  0 
  2  4  1  0  0  0  0 
  3  5  1  0  0  0  0 
  3  6  1  0  0  0  0 
  7  4  2  0  0  0  0 
  4  8  1  0  0  0  0 
  5  9  2  0  0  0  0 
  9  7  1  0  0  0  0 
  7 10  1  0  0  0  0 
  8 11  1  0  0  0  0 
  9 12  1  0  0  0  0 
 11 13  2  0  0  0  0 
 11 14  1  0  0  0  0 
 13 15  1  0  0  0  0 
 13 16  1  0  0  0  0 
 17 14  2  0  0  0  0 
 14 18  1  0  0  0  0 
 15 19  2  0  0  0  0 
 15 20  1  0  0  0  0 
 19 17  1  0  0  0  0 
 17 21  1  0  0  0  0 
M  END
> <Name>
Phenol, 2,2'-methylenebis(3,4,6-trichloro-

> <Source>
DSSTox2DMolFile

> <Tox>
6.040

> <CAS>
70-30-4

$$$$

  CDK

  5  4  0  0  0  0  0  0  0  0999 V2000
    0.0000   -0.6638    0.0000 C   0  0  0  0  0  0  0  0  0  0  0  0
    1.1525   -0.0000    0.0000 C   0  0  0  0  0  0  0  0  0  0  0  0
    2.3050   -0.6638    0.0000 C   0  0  0  0  0  0  0  0  0  0  0  0
    3.4575   -0.0000    0.0000 C   0  0  0  0  0  0  0  0  0  0  0  0
    4.6099   -0.6638    0.0000 O   0  0  0  0  0  0  0  0  0  0  0  0
  1  2  1  0  0  0  0 
  2  3  1  0  0  0  0 
  3  4  1  0  0  0  0 
  4  5  1  0  0  0  0 
M  END
> <Name>
Butyl alcohol

> <Source>
DSSTox2DMolFile

> <Tox>
1.569

> <CAS>
71-36-3

$$$$

  CDK

 11 10  0  0  0  0  0  0  0  0999 V2000
    0.0000   -3.1362    0.0000 C   0  0  0  0  0  0  0  0  0  0  0  0
    0.0000   -1.8099    0.0000 C   0  0  0  0  0  0  0  0  0  0  0  0
    1.1536   -1.1536    0.0000 C   0  0  0  0  0  0  0  0  0  0  0  0
    2.3004   -0.4836    0.0000 C   0  0  0  0  0  0  0  0  0  0  0  0
    0.4974   -0.0000    0.0000 O   0  0  0  0  0  0  0  0  0  0  0  0
    1.8237   -2.3073    0.0000 C   0  0  0  0  0  0  0  0  0  0  0  0
    3.4540   -1.1536    0.0000 C   0  0  0  0  0  0  0  0  0  0  0  0
    4.6077   -0.4836    0.0000 C   0  0  0  0  0  0  0  0  0  0  0  0
    5.7544   -1.1536    0.0000 C   0  0  0  0  0  0  0  0  0  0  0  0
    5.7544   -2.4800    0.0000 C   0  0  0  0  0  0  0  0  0  0  0  0
    6.9080   -0.4836    0.0000 C   0  0  0  0  0  0  0  0  0  0  0  0
  1  2  1  0  0  0  0 
  2  3  1  0  0  0  0 
  3  4  1  0  0  0  0 
  3  5  1  0  0  0  0 
  3  6  1  0  0  0  0 
  4  7  1  0  0  0  0 
  7  8  1  0  0  0  0 
  8  9  1  0  0  0  0 
  9 10  1  0  0  0  0 
  9 11  1  0  0  0  0 
M  END
> <Name>
(1)-3,7-Dimethyloctan-3-ol

> <Source>
DSSTox2DMolFile

> <Tox>
3.340

> <CAS>
78-69-3

$$$$

  CDK

  5  4  0  0  0  0  0  0  0  0999 V2000
    1.9991    1.7492    0.0000 Br  0  0  0  0  0  0  0  0  0  0  0  0
    1.4993    0.8996    0.0000 C   0  0  0  0  0  0  0  0  0  0  0  0
    0.4998    0.8996    0.0000 C   0  0  0  0  0  0  0  0  0  0  0  0
    0.0000    1.7492    0.0000 C   0  0  0  0  0  0  0  0  0  0  0  0
    0.0000    0.0000    0.0000 C   0  0  0  0  0  0  0  0  0  0  0  0
  1  2  1  0  0  0  0 
  2  3  1  0  0  0  0 
  3  4  1  0  0  0  0 
  3  5  1  0  0  0  0 
M  END
> <Name>
Propane, 1-bromo-2-methyl-

> <Source>
NIST2DMolFile

> <Tox>
2.680

> <CAS>
78-77-3

$$$$

  CDK

  5  4  0  0  0  0  0  0  0  0999 V2000
    0.0000   -1.3308    0.0000 O   0  0  0  0  0  0  0  0  0  0  0  0
    1.1511   -1.9945    0.0000 C   0  0  0  0  0  0  0  0  0  0  0  0
    2.3056   -1.3308    0.0000 C   0  0  0  0  0  0  0  0  0  0  0  0
    2.3056   -0.0000    0.0000 C   0  0  0  0  0  0  0  0  0  0  0  0
    3.4567   -1.9945    0.0000 C   0  0  0  0  0  0  0  0  0  0  0  0
  1  2  1  0  0  0  0 
  2  3  1  0  0  0  0 
  3  4  1  0  0  0  0 
  3  5  1  0  0  0  0 
M  END
> <Name>
1-Propanol, 2-methyl-

> <Source>
DSSTox2DMolFile

> <Tox>
1.628

> <CAS>
78-83-1

$$$$

  CDK

  5  4  0  0  0  0  0  0  0  0999 V2000
    0.0000   -1.3308    0.0000 N   0  0  0  0  0  0  0  0  0  0  0  0
    1.1511   -1.9945    0.0000 C   0  0  0  0  0  0  0  0  0  0  0  0
    2.3056   -1.3308    0.0000 C   0  0  0  0  0  0  0  0  0  0  0  0
    2.3056   -0.0000    0.0000 N   0  0  0  0  0  0  0  0  0  0  0  0
    3.4567   -1.9945    0.0000 C   0  0  0  0  0  0  0  0  0  0  0  0
  1  2  1  0  0  0  0 
  2  3  1  0  0  0  0 
  3  4  1  0  0  0  0 
  3  5  1  0  0  0  0 
M  END
> <Name>
1,2-Propanediamine

> <Source>
DSSTox2DMolFile

> <Tox>
2.440

> <CAS>
78-90-0

$$$$

  CDK

  5  4  0  0  0  0  0  0  0  0999 V2000
    2.3056   -0.0000    0.0000 O   0  0  0  0  0  0  0  0  0  0  0  0
    2.3056   -1.3308    0.0000 C   0  0  0  0  0  0  0  0  0  0  0  0
    1.1511   -1.9945    0.0000 C   0  0  0  0  0  0  0  0  0  0  0  0
    3.4567   -1.9945    0.0000 C   0  0  0  0  0  0  0  0  0  0  0  0
    0.0000   -1.3308    0.0000 C   0  0  0  0  0  0  0  0  0  0  0  0
  1  2  2  0  0  0  0 
  2  3  1  0  0  0  0 
  2  4  1  0  0  0  0 
  3  5  2  0  0  0  0 
M  END
> <Name>
Methyl vinyl ketone

> <Source>
DSSTox2DMolFile

> <Tox>
4.510

> <CAS>
78-94-4

$$$$

  CDK

  5  4  0  0  0  0  0  0  0  0999 V2000
    2.3056   -0.0000    0.0000 O   0  0  0  0  0  0  0  0  0  0  0  0
    2.3056   -1.3308    0.0000 C   0  0  0  0  0  0  0  0  0  0  0  0
    3.4567   -1.9945    0.0000 C   0  0  0  0  0  0  0  0  0  0  0  0
    1.1511   -1.9945    0.0000 C   0  0  0  0  0  0  0  0  0  0  0  0
    0.0000   -1.3308    0.0000 N   0  0  0  0  0  0  0  0  0  0  0  0
  1  2  1  0  0  0  0 
  2  3  1  0  0  0  0 
  2  4  1  0  0  0  0 
  4  5  1  0  0  0  0 
M  END
> <Name>
2-Propanol, 1-amino-

> <Source>
DSSTox2DMolFile

> <Tox>
2.070

> <CAS>
78-96-6

$$$$

  CDK

  9  8  0  0  0  0  0  0  0  0999 V2000
    0.0000    0.0000    0.0000 C   0  0  0  0  0  0  0  0  0  0  0  0
    0.8616    0.4561    0.0000 C   0  0  0  0  0  0  0  0  0  0  0  0
    1.7231    0.0000    0.0000 O   0  0  0  0  0  0  0  0  0  0  0  0
    2.6353    0.4561    0.0000 C   0  0  0  0  0  0  0  0  0  0  0  0
    3.4969    0.0000    0.0000 O   0  0  0  0  0  0  0  0  0  0  0  0
    2.6353    1.4697    0.0000 C   0  0  0  0  0  0  0  0  0  0  0  0
    2.6353    2.4833    0.0000 C   0  0  0  0  0  0  0  0  0  0  0  0
    3.5982    1.4697    0.0000 C   0  0  0  0  0  0  0  0  0  0  0  0
    1.5711    1.5204    0.0000 O   0  0  0  0  0  0  0  0  0  0  0  0
  1  2  1  0  0  0  0 
  2  3  1  0  0  0  0 
  3  4  1  0  0  0  0 
  4  5  2  0  0  0  0 
  4  6  1  0  0  0  0 
  6  7  1  0  0  0  0 
  6  8  1  0  0  0  0 
  6  9  1  0  0  0  0 
M  END
> <Name>
ethyl 2-hydroxy-2-methylpropanoate

> <Source>
NIST2DMolFile

> <Tox>
1.430

> <CAS>
80-55-7

$$$$

  CDK

  7  6  0  0  0  0  0  0  0  0999 V2000
    0.0000    0.9680    0.0000 C   0  0  0  0  0  0  0  0  0  0  0  0
    0.9170    1.4774    0.0000 C   0  0  0  0  0  0  0  0  0  0  0  0
    1.7831    0.9680    0.0000 C   0  0  0  0  0  0  0  0  0  0  0  0
    2.5982    1.4774    0.0000 C   0  0  0  0  0  0  0  0  0  0  0  0
    1.7831    0.0000    0.0000 Br  0  0  0  0  0  0  0  0  0  0  0  0
    3.5152    0.9680    0.0000 O   0  0  0  0  0  0  0  0  0  0  0  0
    2.5982    2.4454    0.0000 O   0  0  0  0  0  0  0  0  0  0  0  0
  1  2  1  0  0  0  0 
  2  3  1  0  0  0  0 
  3  4  1  0  0  0  0 
  3  5  1  0  0  0  0 
  4  6  1  0  0  0  0 
  4  7  2  0  0  0  0 
M  END
> <Name>
Butyric acid, 2-bromo- (8CI)

> <Source>
NIST2DMolFile

> <Tox>
3.122

> <CAS>
80-58-0

$$$$

  CDK

 11 11  0  0  0  0  0  0  0  0999 V2000
    4.6557   -0.0000    0.0000 C   0  0  0  0  0  0  0  0  0  0  0  0
    3.9900   -1.1500    0.0000 C   0  0  0  0  0  0  0  0  0  0  0  0
    4.6557   -2.3046    0.0000 C   0  0  0  0  0  0  0  0  0  0  0  0
    2.6584   -1.1500    0.0000 C   0  0  0  0  0  0  0  0  0  0  0  0
    3.9900   -3.4545    0.0000 C   0  0  0  0  0  0  0  0  0  0  0  0
    1.9973   -2.3046    0.0000 C   0  0  0  0  0  0  0  0  0  0  0  0
    1.9973   -0.0000    0.0000 C   0  0  0  0  0  0  0  0  0  0  0  0
    2.6584   -3.4545    0.0000 C   0  0  0  0  0  0  0  0  0  0  0  0
    0.6658   -2.3046    0.0000 N   0  0  0  0  0  0  0  0  0  0  0  0
    0.0000   -3.4545    0.0000 O   0  0  0  0  0  0  0  0  0  0  0  0
    0.0000   -1.1500    0.0000 O   0  0  0  0  0  0  0  0  0  0  0  0
  1  2  1  0  0  0  0 
  2  3  2  0  0  0  0 
  2  4  1  0  0  0  0 
  3  5  1  0  0  0  0 
  6  4  2  0  0  0  0 
  4  7  1  0  0  0  0 
  5  8  2  0  0  0  0 
  8  6  1  0  0  0  0 
  6  9  1  0  0  0  0 
  9 10  1  0  0  0  0 
  9 11  2  0  0  0  0 
M  CHG  1   9   1
M  CHG  1  10  -1
M  END
> <Name>
Benzene, 1,2-dimethyl-3-nitro-

> <Source>
DSSTox2DMolFile

> <Tox>
3.560

> <CAS>
83-41-0

$$$$

  CDK

 13 14  0  0  0  0  0  0  0  0999 V2000
    2.3035   -5.3211    0.0000 O   0  0  0  0  0  0  0  0  0  0  0  0
    2.3035   -3.9908    0.0000 C   0  0  0  0  0  0  0  0  0  0  0  0
    1.1517   -3.3285    0.0000 C   0  0  0  0  0  0  0  0  0  0  0  0
    3.4552   -3.3285    0.0000 C   0  0  0  0  0  0  0  0  0  0  0  0
    0.0000   -3.9908    0.0000 O   0  0  0  0  0  0  0  0  0  0  0  0
    1.1517   -1.9983    0.0000 C   0  0  0  0  0  0  0  0  0  0  0  0
    3.4552   -1.9983    0.0000 C   0  0  0  0  0  0  0  0  0  0  0  0
    4.6070   -3.9908    0.0000 C   0  0  0  0  0  0  0  0  0  0  0  0
    2.3035   -1.3303    0.0000 C   0  0  0  0  0  0  0  0  0  0  0  0
    4.6070   -1.3303    0.0000 C   0  0  0  0  0  0  0  0  0  0  0  0
    5.7587   -3.3285    0.0000 C   0  0  0  0  0  0  0  0  0  0  0  0
    2.3035   -0.0000    0.0000 O   0  0  0  0  0  0  0  0  0  0  0  0
    5.7587   -1.9983    0.0000 C   0  0  0  0  0  0  0  0  0  0  0  0
  1  2  2  0  0  0  0 
  2  3  1  0  0  0  0 
  2  4  1  0  0  0  0 
  3  5  1  0  0  0  0 
  3  6  2  0  0  0  0 
  7  4  1  0  0  0  0 
  8  4  2  0  0  0  0 
  6  9  1  0  0  0  0 
  9  7  1  0  0  0  0 
  7 10  2  0  0  0  0 
 11  8  1  0  0  0  0 
  9 12  2  0  0  0  0 
 10 13  1  0  0  0  0 
 13 11  2  0  0  0  0 
M  END
> <Name>
1,4-Naphthalenedione, 2-hydroxy-

> <Source>
DSSTox2DMolFile

> <Tox>
3.800

> <CAS>
83-72-7

$$$$

  CDK

 20 20  0  0  0  0  0  0  0  0999 V2000
    8.6524   -6.9219    0.0000 C   0  0  0  0  0  0  0  0  0  0  0  0
    7.9862   -8.0727    0.0000 C   0  0  0  0  0  0  0  0  0  0  0  0
    7.9862   -5.7712    0.0000 C   0  0  0  0  0  0  0  0  0  0  0  0
    6.6537   -8.0727    0.0000 C   0  0  0  0  0  0  0  0  0  0  0  0
    6.6537   -5.7712    0.0000 C   0  0  0  0  0  0  0  0  0  0  0  0
    5.9875   -6.9219    0.0000 C   0  0  0  0  0  0  0  0  0  0  0  0
    5.9875   -4.6117    0.0000 C   0  0  0  0  0  0  0  0  0  0  0  0
    4.6550   -6.9219    0.0000 C   0  0  0  0  0  0  0  0  0  0  0  0
    6.6537   -3.4610    0.0000 O   0  0  0  0  0  0  0  0  0  0  0  0
    4.6550   -4.6117    0.0000 O   0  0  0  0  0  0  0  0  0  0  0  0
    3.9974   -5.7712    0.0000 O   0  0  0  0  0  0  0  0  0  0  0  0
    3.9974   -8.0727    0.0000 O   0  0  0  0  0  0  0  0  0  0  0  0
    3.9974   -3.4610    0.0000 C   0  0  0  0  0  0  0  0  0  0  0  0
    2.6649   -8.0727    0.0000 C   0  0  0  0  0  0  0  0  0  0  0  0
    4.6550   -2.3102    0.0000 C   0  0  0  0  0  0  0  0  0  0  0  0
    1.9987   -6.9219    0.0000 C   0  0  0  0  0  0  0  0  0  0  0  0
    3.9974   -1.1594    0.0000 C   0  0  0  0  0  0  0  0  0  0  0  0
    0.6662   -6.9219    0.0000 C   0  0  0  0  0  0  0  0  0  0  0  0
    4.6550   -0.0000    0.0000 C   0  0  0  0  0  0  0  0  0  0  0  0
    0.0000   -5.7712    0.0000 C   0  0  0  0  0  0  0  0  0  0  0  0
  1  2  2  0  0  0  0 
  1  3  1  0  0  0  0 
  2  4  1  0  0  0  0 
  3  5  2  0  0  0  0 
  4  6  2  0  0  0  0 
  6  5  1  0  0  0  0 
  5  7  1  0  0  0  0 
  6  8  1  0  0  0  0 
  7  9  2  0  0  0  0 
  7 10  1  0  0  0  0 
  8 11  2  0  0  0  0 
  8 12  1  0  0  0  0 
 10 13  1  0  0  0  0 
 12 14  1  0  0  0  0 
 13 15  1  0  0  0  0 
 14 16  1  0  0  0  0 
 15 17  1  0  0  0  0 
 16 18  1  0  0  0  0 
 17 19  1  0  0  0  0 
 18 20  1  0  0  0  0 
M  END
> <Name>
1,2-Benzenedicarboxylic acid, dibutyl ester

> <Source>
DSSTox2DMolFile

> <Tox>
4.600

> <CAS>
84-74-2

$$$$

  CDK

 12 13  0  0  0  0  0  0  0  0999 V2000
    0.7822   -0.2217    0.4229 C   0  0  0  0  0  0  0  0  0  0  0  0
    1.0762   -1.5631    0.3461 C   0  0  0  0  0  0  0  0  0  0  0  0
   -0.5558    0.2254    0.2001 C   0  0  0  0  0  0  0  0  0  0  0  0
    1.8682    0.7392    0.7481 C   0  0  0  0  0  0  0  0  0  0  0  0
    0.0723   -2.5102    0.0508 C   0  0  0  0  0  0  0  0  0  0  0  0
   -1.5549   -0.7279   -0.0917 C   0  0  0  0  0  0  0  0  0  0  0  0
   -0.9217    1.5985    0.2623 C   0  0  0  0  0  0  0  0  0  0  0  0
    3.1487    0.6329   -0.4913 Cl  0  0  0  0  0  0  0  0  0  0  0  0
   -1.2173   -2.1056   -0.1629 C   0  0  0  0  0  0  0  0  0  0  0  0
   -2.8919   -0.2971   -0.3131 C   0  0  0  0  0  0  0  0  0  0  0  0
   -2.2140    1.9894    0.0449 C   0  0  0  0  0  0  0  0  0  0  0  0
   -3.2123    1.0308   -0.2456 C   0  0  0  0  0  0  0  0  0  0  0  0
  1  2  1  0  0  0  0 
  1  3  2  0  0  0  0 
  1  4  1  0  0  0  0 
  2  5  2  0  0  0  0 
  6  3  1  0  0  0  0 
  7  3  1  0  0  0  0 
  4  8  1  0  0  0  0 
  5  9  1  0  0  0  0 
  9  6  2  0  0  0  0 
  6 10  1  0  0  0  0 
 11  7  2  0  0  0  0 
 10 12  2  0  0  0  0 
 12 11  1  0  0  0  0 
M  END
> <Name>
Naphthalene, 1-(chloromethyl)-

> <Source>
DougDB3DMolFile

> <Tox>
3.430

> <CAS>
86-52-2

$$$$

  CDK

  9  9  0  0  0  0  0  0  0  0999 V2000
    1.3315   -4.6073    0.0000 N   0  0  0  0  0  0  0  0  0  0  0  0
    1.9950   -3.4555    0.0000 C   0  0  0  0  0  0  0  0  0  0  0  0
    1.3315   -2.3037    0.0000 C   0  0  0  0  0  0  0  0  0  0  0  0
    3.3265   -3.4555    0.0000 C   0  0  0  0  0  0  0  0  0  0  0  0
    1.9950   -1.1518    0.0000 C   0  0  0  0  0  0  0  0  0  0  0  0
    0.0000   -2.3037    0.0000 C   0  0  0  0  0  0  0  0  0  0  0  0
    3.9899   -2.3037    0.0000 C   0  0  0  0  0  0  0  0  0  0  0  0
    3.3265   -1.1518    0.0000 C   0  0  0  0  0  0  0  0  0  0  0  0
    1.3315   -0.0000    0.0000 Cl  0  0  0  0  0  0  0  0  0  0  0  0
  1  2  1  0  0  0  0 
  2  3  2  0  0  0  0 
  2  4  1  0  0  0  0 
  3  5  1  0  0  0  0 
  3  6  1  0  0  0  0 
  7  4  2  0  0  0  0 
  5  8  2  0  0  0  0 
  5  9  1  0  0  0  0 
  8  7  1  0  0  0  0 
M  END
> <Name>
Benzenamine, 3-chloro-2-methyl-

> <Source>
DSSTox2DMolFile

> <Tox>
3.380

> <CAS>
87-60-5

$$$$

  CDK

  9  9  0  0  0  0  0  0  0  0999 V2000
    0.0000   -2.3037    0.0000 Cl  0  0  0  0  0  0  0  0  0  0  0  0
    1.3315   -2.3037    0.0000 C   0  0  0  0  0  0  0  0  0  0  0  0
    1.9950   -1.1518    0.0000 C   0  0  0  0  0  0  0  0  0  0  0  0
    1.9950   -3.4555    0.0000 C   0  0  0  0  0  0  0  0  0  0  0  0
    1.3315   -0.0000    0.0000 Cl  0  0  0  0  0  0  0  0  0  0  0  0
    3.3265   -1.1518    0.0000 C   0  0  0  0  0  0  0  0  0  0  0  0
    3.3265   -3.4555    0.0000 C   0  0  0  0  0  0  0  0  0  0  0  0
    1.3315   -4.6073    0.0000 Cl  0  0  0  0  0  0  0  0  0  0  0  0
    3.9899   -2.3037    0.0000 C   0  0  0  0  0  0  0  0  0  0  0  0
  1  2  1  0  0  0  0 
  2  3  2  0  0  0  0 
  2  4  1  0  0  0  0 
  3  5  1  0  0  0  0 
  3  6  1  0  0  0  0 
  7  4  2  0  0  0  0 
  4  8  1  0  0  0  0 
  6  9  2  0  0  0  0 
  9  7  1  0  0  0  0 
M  END
> <Name>
Benzene, 1,2,3-trichloro-

> <Source>
DSSTox2DMolFile

> <Tox>
4.210

> <CAS>
87-61-6

$$$$

  CDK

 10 10  0  0  0  0  0  0  0  0999 V2000
    2.3091   -1.3301    0.0000 C   0  0  0  0  0  0  0  0  0  0  0  0
    2.3091   -0.0000    0.0000 O   0  0  0  0  0  0  0  0  0  0  0  0
    3.4637   -2.0059    0.0000 C   0  0  0  0  0  0  0  0  0  0  0  0
    1.1546   -2.0059    0.0000 C   0  0  0  0  0  0  0  0  0  0  0  0
    3.4637   -3.3360    0.0000 C   0  0  0  0  0  0  0  0  0  0  0  0
    1.1546   -3.3360    0.0000 C   0  0  0  0  0  0  0  0  0  0  0  0
    2.3091   -3.9904    0.0000 C   0  0  0  0  0  0  0  0  0  0  0  0
    4.6129   -3.9904    0.0000 C   0  0  0  0  0  0  0  0  0  0  0  0
    0.0000   -3.9904    0.0000 C   0  0  0  0  0  0  0  0  0  0  0  0
    2.3091   -5.3206    0.0000 Cl  0  0  0  0  0  0  0  0  0  0  0  0
  1  2  1  0  0  0  0 
  1  3  2  0  0  0  0 
  1  4  1  0  0  0  0 
  3  5  1  0  0  0  0 
  4  6  2  0  0  0  0 
  5  7  2  0  0  0  0 
  5  8  1  0  0  0  0 
  6  7  1  0  0  0  0 
  6  9  1  0  0  0  0 
  7 10  1  0  0  0  0 
M  END
> <Name>
Phenol, 4-chloro-3,5-dimethyl-

> <Source>
DSSTox2DMolFile

> <Tox>
4.200

> <CAS>
88-04-0

$$$$

  CDK

  8  7  0  0  0  0  0  0  0  0999 V2000
    0.0901    1.0176   -0.0817 C   0  0  0  0  0  0  0  0  0  0  0  0
   -0.0934   -0.3337    0.5858 C   0  0  0  0  0  0  0  0  0  0  0  0
    0.1246    1.3174   -1.2615 O   0  0  0  0  0  0  0  0  0  0  0  0
    0.2465    2.0554    0.7766 O   0  0  0  0  0  0  0  0  0  0  0  0
   -1.0862   -1.2041   -0.1855 C   0  0  0  0  0  0  0  0  0  0  0  0
    1.2656   -1.0196    0.7599 C   0  0  0  0  0  0  0  0  0  0  0  0
   -2.5150   -0.7486    0.0107 C   0  0  0  0  0  0  0  0  0  0  0  0
    1.9456   -1.4094   -0.5332 C   0  0  0  0  0  0  0  0  0  0  0  0
  1  2  1  0  0  0  0 
  1  3  2  0  0  0  0 
  1  4  1  0  0  0  0 
  2  5  1  0  0  0  0 
  2  6  1  0  0  0  0 
  5  7  1  0  0  0  0 
  6  8  1  0  0  0  0 
M  END
> <Name>
Butanoic acid, 2-ethyl-

> <Source>
DougDB3DMolFile

> <Tox>
2.848

> <CAS>
88-09-5

$$$$

  CDK

 14 14  0  0  0  0  0  0  0  0999 V2000
    5.3209   -5.7586    0.0000 O   0  0  0  0  0  0  0  0  0  0  0  0
    4.6529   -4.6069    0.0000 C   0  0  0  0  0  0  0  0  0  0  0  0
    3.3227   -4.6069    0.0000 C   0  0  0  0  0  0  0  0  0  0  0  0
    5.3209   -3.4551    0.0000 C   0  0  0  0  0  0  0  0  0  0  0  0
    2.6605   -3.4551    0.0000 C   0  0  0  0  0  0  0  0  0  0  0  0
    4.6529   -2.3034    0.0000 C   0  0  0  0  0  0  0  0  0  0  0  0
    1.3302   -3.4551    0.0000 C   0  0  0  0  0  0  0  0  0  0  0  0
    3.3227   -2.3034    0.0000 C   0  0  0  0  0  0  0  0  0  0  0  0
    1.3302   -2.1249    0.0000 F   0  0  0  0  0  0  0  0  0  0  0  0
    1.3302   -4.7854    0.0000 F   0  0  0  0  0  0  0  0  0  0  0  0
    0.0000   -3.4551    0.0000 F   0  0  0  0  0  0  0  0  0  0  0  0
    2.6605   -1.1517    0.0000 N   0  0  0  0  0  0  0  0  0  0  0  0
    1.3302   -1.1517    0.0000 O   0  0  0  0  0  0  0  0  0  0  0  0
    3.3227   -0.0000    0.0000 O   0  0  0  0  0  0  0  0  0  0  0  0
  1  2  1  0  0  0  0 
  2  3  2  0  0  0  0 
  2  4  1  0  0  0  0 
  3  5  1  0  0  0  0 
  6  4  2  0  0  0  0 
  5  7  1  0  0  0  0 
  5  8  2  0  0  0  0 
  8  6  1  0  0  0  0 
  7  9  1  0  0  0  0 
  7 10  1  0  0  0  0 
  7 11  1  0  0  0  0 
  8 12  1  0  0  0  0 
 12 13  1  0  0  0  0 
 12 14  2  0  0  0  0 
M  CHG  1  12   1
M  CHG  1  13  -1
M  END
> <Name>
m-Cresol, alpha,alpha,alpha-trifluoro-4-nitro-

> <Source>
DSSTox2DMolFile

> <Tox>
4.650

> <CAS>
88-30-2

$$$$

  CDK

 10 10  0  0  0  0  0  0  0  0999 V2000
    0.0000    1.4291    0.0000 C   0  0  0  0  0  0  0  0  0  0  0  0
    0.9187    1.9395    0.0000 C   0  0  0  0  0  0  0  0  0  0  0  0
    0.9187    3.0113    0.0000 C   0  0  0  0  0  0  0  0  0  0  0  0
    1.7864    1.4291    0.0000 C   0  0  0  0  0  0  0  0  0  0  0  0
    2.6540    1.9395    0.0000 C   0  0  0  0  0  0  0  0  0  0  0  0
    1.7864    0.5104    0.0000 C   0  0  0  0  0  0  0  0  0  0  0  0
    3.5217    1.4291    0.0000 C   0  0  0  0  0  0  0  0  0  0  0  0
    2.6540    0.0000    0.0000 C   0  0  0  0  0  0  0  0  0  0  0  0
    0.9187    0.0000    0.0000 O   0  0  0  0  0  0  0  0  0  0  0  0
    3.5217    0.5104    0.0000 C   0  0  0  0  0  0  0  0  0  0  0  0
  1  2  1  0  0  0  0 
  2  3  1  0  0  0  0 
  2  4  1  0  0  0  0 
  4  5  2  0  0  0  0 
  6  4  1  0  0  0  0 
  5  7  1  0  0  0  0 
  8  6  2  0  0  0  0 
  6  9  1  0  0  0  0 
  7 10  2  0  0  0  0 
 10  8  1  0  0  0  0 
M  END
> <Name>
Phenol, 2-(1-methylethyl)-

> <Source>
NIST2DMolFile

> <Tox>
3.610

> <CAS>
88-69-7

$$$$

  CDK

 10 10  0  0  0  0  0  0  0  0999 V2000
    3.9896   -2.3044    0.0000 N   0  0  0  0  0  0  0  0  0  0  0  0
    4.6553   -3.4542    0.0000 O   0  0  0  0  0  0  0  0  0  0  0  0
    4.6553   -1.1499    0.0000 O   0  0  0  0  0  0  0  0  0  0  0  0
    2.6582   -2.3044    0.0000 C   0  0  0  0  0  0  0  0  0  0  0  0
    1.9971   -3.4542    0.0000 C   0  0  0  0  0  0  0  0  0  0  0  0
    1.9971   -1.1499    0.0000 C   0  0  0  0  0  0  0  0  0  0  0  0
    0.6657   -3.4542    0.0000 C   0  0  0  0  0  0  0  0  0  0  0  0
    0.6657   -1.1499    0.0000 C   0  0  0  0  0  0  0  0  0  0  0  0
    2.6582   -0.0000    0.0000 C   0  0  0  0  0  0  0  0  0  0  0  0
    0.0000   -2.3044    0.0000 C   0  0  0  0  0  0  0  0  0  0  0  0
  1  2  2  0  0  0  0 
  1  3  1  0  0  0  0 
  1  4  1  0  0  0  0 
  4  5  2  0  0  0  0 
  4  6  1  0  0  0  0 
  5  7  1  0  0  0  0 
  8  6  2  0  0  0  0 
  6  9  1  0  0  0  0 
  7 10  2  0  0  0  0 
 10  8  1  0  0  0  0 
M  CHG  1   1   1
M  CHG  1   3  -1
M  END
> <Name>
Benzene, 1-methyl-2-nitro-

> <Source>
DSSTox2DMolFile

> <Tox>
3.260

> <CAS>
88-72-2

$$$$

  CDK

 10 10  0  0  0  0  0  0  0  0999 V2000
    3.9896   -2.3044    0.0000 N   0  0  0  0  0  0  0  0  0  0  0  0
    4.6553   -3.4542    0.0000 O   0  0  0  0  0  0  0  0  0  0  0  0
    4.6553   -1.1499    0.0000 O   0  0  0  0  0  0  0  0  0  0  0  0
    2.6582   -2.3044    0.0000 C   0  0  0  0  0  0  0  0  0  0  0  0
    1.9971   -3.4542    0.0000 C   0  0  0  0  0  0  0  0  0  0  0  0
    1.9971   -1.1499    0.0000 C   0  0  0  0  0  0  0  0  0  0  0  0
    0.6657   -3.4542    0.0000 C   0  0  0  0  0  0  0  0  0  0  0  0
    0.6657   -1.1499    0.0000 C   0  0  0  0  0  0  0  0  0  0  0  0
    2.6582   -0.0000    0.0000 N   0  0  0  0  0  0  0  0  0  0  0  0
    0.0000   -2.3044    0.0000 C   0  0  0  0  0  0  0  0  0  0  0  0
  1  2  2  0  0  0  0 
  1  3  1  0  0  0  0 
  1  4  1  0  0  0  0 
  4  5  2  0  0  0  0 
  4  6  1  0  0  0  0 
  5  7  1  0  0  0  0 
  8  6  2  0  0  0  0 
  6  9  1  0  0  0  0 
  7 10  2  0  0  0  0 
 10  8  1  0  0  0  0 
M  CHG  1   1   1
M  CHG  1   3  -1
M  END
> <Name>
Benzenamine, 2-nitro-

> <Source>
DSSTox2DMolFile

> <Tox>
3.080

> <CAS>
88-74-4

$$$$

  CDK

 11 11  0  0  0  0  0  0  0  0999 V2000
   -0.8682    1.2976   -0.0760 C   0  0  0  0  0  0  0  0  0  0  0  0
   -0.7848   -0.1006   -0.0049 C   0  0  0  0  0  0  0  0  0  0  0  0
    0.3169    2.0419   -0.0938 C   0  0  0  0  0  0  0  0  0  0  0  0
   -2.1674    2.0178   -0.1398 C   0  0  0  0  0  0  0  0  0  0  0  0
    0.4595   -0.7368    0.0352 C   0  0  0  0  0  0  0  0  0  0  0  0
   -2.0125   -0.9676    0.0261 N   0  0  0  0  0  0  0  0  0  0  0  0
    1.5548    1.4186   -0.0431 C   0  0  0  0  0  0  0  0  0  0  0  0
    1.6201    0.0273    0.0193 C   0  0  0  0  0  0  0  0  0  0  0  0
   -2.1680   -1.7902   -0.8521 O   0  0  0  0  0  0  0  0  0  0  0  0
   -2.8107   -0.8384    0.9311 O   0  0  0  0  0  0  0  0  0  0  0  0
    3.1191   -0.7357    0.0738 Cl  0  0  0  0  0  0  0  0  0  0  0  0
  1  2  1  0  0  0  0 
  1  3  2  0  0  0  0 
  1  4  1  0  0  0  0 
  2  5  2  0  0  0  0 
  2  6  1  0  0  0  0 
  3  7  1  0  0  0  0 
  8  5  1  0  0  0  0 
  6  9  2  0  0  0  0 
  6 10  1  0  0  0  0 
  8  7  2  0  0  0  0 
  8 11  1  0  0  0  0 
M  CHG  1   6   1
M  CHG  1  10  -1
M  END
> <Name>
Toluene, 4-chloro-2-nitro- (8CI)

> <Source>
DougDB3DMolFile

> <Tox>
3.820

> <CAS>
89-59-8

$$$$

  CDK

 12 12  0  0  0  0  0  0  0  0999 V2000
    0.6641   -2.3033    0.0000 N   0  0  0  0  0  0  0  0  0  0  0  0
    0.0000   -1.1547    0.0000 O   0  0  0  0  0  0  0  0  0  0  0  0
    0.0000   -3.4580    0.0000 O   0  0  0  0  0  0  0  0  0  0  0  0
    1.9922   -2.3033    0.0000 C   0  0  0  0  0  0  0  0  0  0  0  0
    2.6563   -1.1547    0.0000 C   0  0  0  0  0  0  0  0  0  0  0  0
    2.6563   -3.4580    0.0000 C   0  0  0  0  0  0  0  0  0  0  0  0
    3.9905   -1.1547    0.0000 C   0  0  0  0  0  0  0  0  0  0  0  0
    3.9905   -3.4580    0.0000 C   0  0  0  0  0  0  0  0  0  0  0  0
    1.9922   -4.6067    0.0000 Cl  0  0  0  0  0  0  0  0  0  0  0  0
    4.6546   -0.0000    0.0000 Cl  0  0  0  0  0  0  0  0  0  0  0  0
    4.6546   -2.3033    0.0000 C   0  0  0  0  0  0  0  0  0  0  0  0
    5.9827   -2.3033    0.0000 Cl  0  0  0  0  0  0  0  0  0  0  0  0
  1  2  2  0  0  0  0 
  1  3  1  0  0  0  0 
  1  4  1  0  0  0  0 
  4  5  2  0  0  0  0 
  4  6  1  0  0  0  0 
  5  7  1  0  0  0  0 
  8  6  2  0  0  0  0 
  6  9  1  0  0  0  0 
  7 10  1  0  0  0  0 
  7 11  2  0  0  0  0 
 11  8  1  0  0  0  0 
 11 12  1  0  0  0  0 
M  CHG  1   1   1
M  CHG  1   3  -1
M  END
> <Name>
Benzene, 1,2,4-trichloro-5-nitro-

> <Source>
DSSTox2DMolFile

> <Tox>
4.530

> <CAS>
89-69-0

$$$$

  CDK

  9  9  0  0  0  0  0  0  0  0999 V2000
    0.0000   -3.4550    0.0000 O   0  0  0  0  0  0  0  0  0  0  0  0
    0.6659   -2.3049    0.0000 C   0  0  0  0  0  0  0  0  0  0  0  0
    1.9976   -2.3049    0.0000 C   0  0  0  0  0  0  0  0  0  0  0  0
    2.6588   -1.1501    0.0000 C   0  0  0  0  0  0  0  0  0  0  0  0
    2.6588   -3.4550    0.0000 C   0  0  0  0  0  0  0  0  0  0  0  0
    3.9905   -1.1501    0.0000 C   0  0  0  0  0  0  0  0  0  0  0  0
    1.9976   -0.0000    0.0000 Cl  0  0  0  0  0  0  0  0  0  0  0  0
    3.9905   -3.4550    0.0000 C   0  0  0  0  0  0  0  0  0  0  0  0
    4.6563   -2.3049    0.0000 C   0  0  0  0  0  0  0  0  0  0  0  0
  1  2  2  0  0  0  0 
  2  3  1  0  0  0  0 
  3  4  2  0  0  0  0 
  3  5  1  0  0  0  0 
  4  6  1  0  0  0  0 
  4  7  1  0  0  0  0 
  8  5  2  0  0  0  0 
  6  9  2  0  0  0  0 
  9  8  1  0  0  0  0 
M  END
> <Name>
Benzaldehyde, 2-chloro-

> <Source>
DSSTox2DMolFile

> <Tox>
3.490

> <CAS>
89-98-5

$$$$

  CDK

  9  9  0  0  0  0  0  0  0  0999 V2000
    3.9905   -1.1501    0.0000 C   0  0  0  0  0  0  0  0  0  0  0  0
    4.6563   -2.3049    0.0000 C   0  0  0  0  0  0  0  0  0  0  0  0
    2.6588   -1.1501    0.0000 C   0  0  0  0  0  0  0  0  0  0  0  0
    3.9905   -3.4550    0.0000 C   0  0  0  0  0  0  0  0  0  0  0  0
    1.9976   -2.3049    0.0000 C   0  0  0  0  0  0  0  0  0  0  0  0
    1.9976   -0.0000    0.0000 O   0  0  0  0  0  0  0  0  0  0  0  0
    2.6588   -3.4550    0.0000 C   0  0  0  0  0  0  0  0  0  0  0  0
    0.6659   -2.3049    0.0000 O   0  0  0  0  0  0  0  0  0  0  0  0
    0.0000   -3.4550    0.0000 C   0  0  0  0  0  0  0  0  0  0  0  0
  1  2  2  0  0  0  0 
  1  3  1  0  0  0  0 
  2  4  1  0  0  0  0 
  5  3  2  0  0  0  0 
  3  6  1  0  0  0  0 
  4  7  2  0  0  0  0 
  7  5  1  0  0  0  0 
  5  8  1  0  0  0  0 
  8  9  1  0  0  0  0 
M  END
> <Name>
Phenol, 2-methoxy-

> <Source>
DSSTox2DMolFile

> <Tox>
2.490

> <CAS>
90-05-1

$$$$

  CDK

 11 12  0  0  0  0  0  0  0  0999 V2000
    2.5864    1.9896    0.0000 C   0  0  0  0  0  0  0  0  0  0  0  0
    2.5864    2.9844    0.0000 Br  0  0  0  0  0  0  0  0  0  0  0  0
    1.7409    1.4922    0.0000 C   0  0  0  0  0  0  0  0  0  0  0  0
    3.4818    1.4922    0.0000 C   0  0  0  0  0  0  0  0  0  0  0  0
    1.7409    0.4974    0.0000 C   0  0  0  0  0  0  0  0  0  0  0  0
    0.8953    1.9896    0.0000 C   0  0  0  0  0  0  0  0  0  0  0  0
    3.4818    0.4974    0.0000 C   0  0  0  0  0  0  0  0  0  0  0  0
    2.5864    0.0000    0.0000 C   0  0  0  0  0  0  0  0  0  0  0  0
    0.8953    0.0000    0.0000 C   0  0  0  0  0  0  0  0  0  0  0  0
    0.0000    1.4922    0.0000 C   0  0  0  0  0  0  0  0  0  0  0  0
    0.0000    0.4974    0.0000 C   0  0  0  0  0  0  0  0  0  0  0  0
  1  2  1  0  0  0  0 
  3  1  2  0  0  0  0 
  1  4  1  0  0  0  0 
  3  5  1  0  0  0  0 
  6  3  1  0  0  0  0 
  4  7  2  0  0  0  0 
  8  5  2  0  0  0  0 
  5  9  1  0  0  0  0 
 10  6  2  0  0  0  0 
  7  8  1  0  0  0  0 
  9 11  2  0  0  0  0 
 11 10  1  0  0  0  0 
M  END
> <Name>
1-bromonaphthalene

> <Source>
NIST2DMolFile

> <Tox>
4.860

> <CAS>
90-11-9

$$$$

  CDK

 11 12  0  0  0  0  0  0  0  0999 V2000
    0.0000    1.5433    0.0000 C   0  0  0  0  0  0  0  0  0  0  0  0
    0.0000    0.4978    0.0000 C   0  0  0  0  0  0  0  0  0  0  0  0
    0.8463    2.0411    0.0000 C   0  0  0  0  0  0  0  0  0  0  0  0
    0.8463    0.0000    0.0000 C   0  0  0  0  0  0  0  0  0  0  0  0
    1.6926    1.5433    0.0000 C   0  0  0  0  0  0  0  0  0  0  0  0
    1.6926    0.5476    0.0000 C   0  0  0  0  0  0  0  0  0  0  0  0
    2.5887    2.0411    0.0000 C   0  0  0  0  0  0  0  0  0  0  0  0
    2.5887    0.0498    0.0000 C   0  0  0  0  0  0  0  0  0  0  0  0
    3.4350    1.5433    0.0000 C   0  0  0  0  0  0  0  0  0  0  0  0
    2.5887    3.0368    0.0000 I   0  0  0  0  0  0  0  0  0  0  0  0
    3.4350    0.5476    0.0000 C   0  0  0  0  0  0  0  0  0  0  0  0
  2  1  2  0  0  0  0 
  1  3  1  0  0  0  0 
  4  2  1  0  0  0  0 
  3  5  2  0  0  0  0 
  6  4  2  0  0  0  0 
  6  5  1  0  0  0  0 
  5  7  1  0  0  0  0 
  8  6  1  0  0  0  0 
  7  9  2  0  0  0  0 
  7 10  1  0  0  0  0 
 11  8  2  0  0  0  0 
  9 11  1  0  0  0  0 
M  END
> <Name>
1-iodonaphthalene

> <Source>
NIST2DMolFile

> <Tox>
5.170

> <CAS>
90-14-2

$$$$

  CDK

 13 14  0  0  0  0  0  0  0  0999 V2000
    2.6607   -0.0000    0.0000 O   0  0  0  0  0  0  0  0  0  0  0  0
    1.9955   -1.1574    0.0000 C   0  0  0  0  0  0  0  0  0  0  0  0
    2.6607   -2.3082    0.0000 C   0  0  0  0  0  0  0  0  0  0  0  0
    0.6652   -1.1574    0.0000 C   0  0  0  0  0  0  0  0  0  0  0  0
    1.9955   -3.4589    0.0000 C   0  0  0  0  0  0  0  0  0  0  0  0
    3.9910   -2.3082    0.0000 C   0  0  0  0  0  0  0  0  0  0  0  0
    0.0000   -2.3082    0.0000 C   0  0  0  0  0  0  0  0  0  0  0  0
    0.6652   -3.4589    0.0000 C   0  0  0  0  0  0  0  0  0  0  0  0
    4.6562   -1.1574    0.0000 C   0  0  0  0  0  0  0  0  0  0  0  0
    4.6562   -3.4589    0.0000 C   0  0  0  0  0  0  0  0  0  0  0  0
    5.9866   -1.1574    0.0000 C   0  0  0  0  0  0  0  0  0  0  0  0
    5.9866   -3.4589    0.0000 C   0  0  0  0  0  0  0  0  0  0  0  0
    6.6517   -2.3082    0.0000 C   0  0  0  0  0  0  0  0  0  0  0  0
  1  2  1  0  0  0  0 
  2  3  2  0  0  0  0 
  2  4  1  0  0  0  0 
  3  5  1  0  0  0  0 
  3  6  1  0  0  0  0 
  7  4  2  0  0  0  0 
  5  8  2  0  0  0  0 
  6  9  2  0  0  0  0 
  6 10  1  0  0  0  0 
  8  7  1  0  0  0  0 
  9 11  1  0  0  0  0 
 12 10  2  0  0  0  0 
 11 13  2  0  0  0  0 
 13 12  1  0  0  0  0 
M  END
> <Name>
(1,1'-Biphenyl)-2-ol

> <Source>
DSSTox2DMolFile

> <Tox>
4.090

> <CAS>
90-43-7

$$$$

  CDK

 11 11  0  0  0  0  0  0  0  0999 V2000
    0.0039    0.6740    0.0007 C   0  0  0  0  0  0  0  0  0  0  0  0
   -1.2160   -0.0447    0.0023 C   0  0  0  0  0  0  0  0  0  0  0  0
    1.2194   -0.0440   -0.0010 C   0  0  0  0  0  0  0  0  0  0  0  0
   -0.0853    2.0405   -0.0001 O   0  0  0  0  0  0  0  0  0  0  0  0
   -1.2031   -1.4428    0.0024 C   0  0  0  0  0  0  0  0  0  0  0  0
   -2.3534    0.7371    0.0057 O   0  0  0  0  0  0  0  0  0  0  0  0
    1.2156   -1.4422   -0.0012 C   0  0  0  0  0  0  0  0  0  0  0  0
    2.3591    0.7458   -0.0029 O   0  0  0  0  0  0  0  0  0  0  0  0
    0.0074   -2.1250    0.0006 C   0  0  0  0  0  0  0  0  0  0  0  0
   -3.5924    0.0737   -0.0067 C   0  0  0  0  0  0  0  0  0  0  0  0
    3.6010    0.0890    0.0007 C   0  0  0  0  0  0  0  0  0  0  0  0
  1  2  1  0  0  0  0 
  1  3  2  0  0  0  0 
  1  4  1  0  0  0  0 
  2  5  2  0  0  0  0 
  2  6  1  0  0  0  0 
  7  3  1  0  0  0  0 
  3  8  1  0  0  0  0 
  5  9  1  0  0  0  0 
  6 10  1  0  0  0  0 
  9  7  2  0  0  0  0 
  8 11  1  0  0  0  0 
M  END
> <Name>
Phenol, 2,6-dimethoxy-

> <Source>
DougDB3DMolFile

> <Tox>
2.400

> <CAS>
91-10-1

$$$$

  CDK

 10 11  0  0  0  0  0  0  0  0999 V2000
    1.7401    1.4915    0.0000 C   0  0  0  0  0  0  0  0  0  0  0  0
    1.7401    0.4972    0.0000 C   0  0  0  0  0  0  0  0  0  0  0  0
    2.5852    1.9886    0.0000 N   0  0  0  0  0  0  0  0  0  0  0  0
    0.8949    1.9886    0.0000 C   0  0  0  0  0  0  0  0  0  0  0  0
    0.8949    0.0000    0.0000 C   0  0  0  0  0  0  0  0  0  0  0  0
    2.5852    0.0000    0.0000 N   0  0  0  0  0  0  0  0  0  0  0  0
    3.4801    1.4915    0.0000 C   0  0  0  0  0  0  0  0  0  0  0  0
    0.0000    1.4915    0.0000 C   0  0  0  0  0  0  0  0  0  0  0  0
    0.0000    0.4972    0.0000 C   0  0  0  0  0  0  0  0  0  0  0  0
    3.4801    0.4972    0.0000 C   0  0  0  0  0  0  0  0  0  0  0  0
  2  1  1  0  0  0  0 
  1  3  1  0  0  0  0 
  4  1  2  0  0  0  0 
  2  5  2  0  0  0  0 
  6  2  1  0  0  0  0 
  3  7  2  0  0  0  0 
  8  4  1  0  0  0  0 
  5  9  1  0  0  0  0 
 10  6  2  0  0  0  0 
  7 10  1  0  0  0  0 
  9  8  2  0  0  0  0 
M  END
> <Name>
Quinoxaline

> <Source>
NIST2DMolFile

> <Tox>
2.700

> <CAS>
91-19-0

$$$$

  CDK

 11 11  0  0  0  0  0  0  0  0999 V2000
    1.9971   -0.0000    0.0000 C   0  0  0  0  0  0  0  0  0  0  0  0
    2.6581   -1.1545    0.0000 O   0  0  0  0  0  0  0  0  0  0  0  0
    1.9971   -2.3043    0.0000 C   0  0  0  0  0  0  0  0  0  0  0  0
    2.6581   -3.4588    0.0000 C   0  0  0  0  0  0  0  0  0  0  0  0
    0.6657   -2.3043    0.0000 C   0  0  0  0  0  0  0  0  0  0  0  0
    1.9971   -4.6086    0.0000 C   0  0  0  0  0  0  0  0  0  0  0  0
    3.9895   -3.4588    0.0000 N   0  0  0  0  0  0  0  0  0  0  0  0
    0.0000   -3.4588    0.0000 C   0  0  0  0  0  0  0  0  0  0  0  0
    0.6657   -4.6086    0.0000 C   0  0  0  0  0  0  0  0  0  0  0  0
    4.6552   -2.3043    0.0000 O   0  0  0  0  0  0  0  0  0  0  0  0
    4.6552   -4.6086    0.0000 O   0  0  0  0  0  0  0  0  0  0  0  0
  1  2  1  0  0  0  0 
  2  3  1  0  0  0  0 
  3  4  2  0  0  0  0 
  3  5  1  0  0  0  0 
  4  6  1  0  0  0  0 
  4  7  1  0  0  0  0 
  8  5  2  0  0  0  0 
  6  9  2  0  0  0  0 
  7 10  2  0  0  0  0 
  7 11  1  0  0  0  0 
  9  8  1  0  0  0  0 
M  CHG  1   7   1
M  CHG  1  11  -1
M  END
> <Name>
Benzene, 1-methoxy-2-nitro-

> <Source>
DSSTox2DMolFile

> <Tox>
2.930

> <CAS>
91-23-6

$$$$

  CDK

 15 16  0  0  0  0  0  0  0  0999 V2000
    2.0175    0.8574    0.0000 C   0  0  0  0  0  0  0  0  0  0  0  0
    1.5131    0.0000    0.0000 C   0  0  0  0  0  0  0  0  0  0  0  0
    1.5131    1.7148    0.0000 C   0  0  0  0  0  0  0  0  0  0  0  0
    3.0262    0.8574    0.0000 C   0  0  0  0  0  0  0  0  0  0  0  0
    0.5044    0.0000    0.0000 C   0  0  0  0  0  0  0  0  0  0  0  0
    0.5044    1.7148    0.0000 C   0  0  0  0  0  0  0  0  0  0  0  0
    3.5306    0.0000    0.0000 C   0  0  0  0  0  0  0  0  0  0  0  0
    3.5306    1.7148    0.0000 C   0  0  0  0  0  0  0  0  0  0  0  0
    0.0000    0.8574    0.0000 C   0  0  0  0  0  0  0  0  0  0  0  0
    4.5393    0.0000    0.0000 C   0  0  0  0  0  0  0  0  0  0  0  0
    4.5393    1.7148    0.0000 C   0  0  0  0  0  0  0  0  0  0  0  0
    5.0436    0.8574    0.0000 C   0  0  0  0  0  0  0  0  0  0  0  0
    6.0524    0.8574    0.0000 C   0  0  0  0  0  0  0  0  0  0  0  0
    6.5567    0.0000    0.0000 C   0  0  0  0  0  0  0  0  0  0  0  0
    6.5567    1.7148    0.0000 O   0  0  0  0  0  0  0  0  0  0  0  0
  1  2  2  0  0  0  0 
  3  1  1  0  0  0  0 
  1  4  1  0  0  0  0 
  2  5  1  0  0  0  0 
  6  3  2  0  0  0  0 
  7  4  2  0  0  0  0 
  4  8  1  0  0  0  0 
  5  9  2  0  0  0  0 
  9  6  1  0  0  0  0 
 10  7  1  0  0  0  0 
  8 11  2  0  0  0  0 
 12 10  2  0  0  0  0 
 11 12  1  0  0  0  0 
 12 13  1  0  0  0  0 
 13 14  1  0  0  0  0 
 13 15  2  0  0  0  0 
M  END
> <Name>
1-(4-phenylphenyl)ethanone

> <Source>
NIST2DMolFile

> <Tox>
3.920

> <CAS>
92-91-1

$$$$

  CDK

 10 10  0  0  0  0  0  0  0  0999 V2000
    0.9996    2.5990    0.0000 C   0  0  0  0  0  0  0  0  0  0  0  0
    1.4994    1.7493    0.0000 O   0  0  0  0  0  0  0  0  0  0  0  0
    0.0000    2.5990    0.0000 C   0  0  0  0  0  0  0  0  0  0  0  0
    2.4991    1.7493    0.0000 C   0  0  0  0  0  0  0  0  0  0  0  0
    2.9989    0.8497    0.0000 C   0  0  0  0  0  0  0  0  0  0  0  0
    2.9989    2.5990    0.0000 C   0  0  0  0  0  0  0  0  0  0  0  0
    2.4991    0.0000    0.0000 O   0  0  0  0  0  0  0  0  0  0  0  0
    3.9985    0.8497    0.0000 C   0  0  0  0  0  0  0  0  0  0  0  0
    3.9985    2.5990    0.0000 C   0  0  0  0  0  0  0  0  0  0  0  0
    4.4983    1.7493    0.0000 C   0  0  0  0  0  0  0  0  0  0  0  0
  1  2  1  0  0  0  0 
  1  3  1  0  0  0  0 
  2  4  1  0  0  0  0 
  4  5  2  0  0  0  0 
  6  4  1  0  0  0  0 
  5  7  1  0  0  0  0 
  5  8  1  0  0  0  0 
  9  6  2  0  0  0  0 
  8 10  2  0  0  0  0 
 10  9  1  0  0  0  0 
M  END
> <Name>
2-ethoxyphenol

> <Source>
NIST2DMolFile

> <Tox>
2.640

> <CAS>
94-71-3

$$$$

  CDK

  9 10  0  0  0  0  0  0  0  0999 V2000
    1.7560    0.5017    0.0000 C   0  0  0  0  0  0  0  0  0  0  0  0
    1.7560    1.5052    0.0000 C   0  0  0  0  0  0  0  0  0  0  0  0
    2.7093    0.2007    0.0000 C   0  0  0  0  0  0  0  0  0  0  0  0
    0.9031    0.0000    0.0000 C   0  0  0  0  0  0  0  0  0  0  0  0
    2.7093    1.8062    0.0000 S   0  0  0  0  0  0  0  0  0  0  0  0
    0.9031    2.0069    0.0000 C   0  0  0  0  0  0  0  0  0  0  0  0
    3.2612    1.0035    0.0000 C   0  0  0  0  0  0  0  0  0  0  0  0
    0.0000    0.5017    0.0000 C   0  0  0  0  0  0  0  0  0  0  0  0
    0.0000    1.5052    0.0000 C   0  0  0  0  0  0  0  0  0  0  0  0
  1  2  2  0  0  0  0 
  3  1  1  0  0  0  0 
  1  4  1  0  0  0  0 
  2  5  1  0  0  0  0 
  6  2  1  0  0  0  0 
  7  3  2  0  0  0  0 
  4  8  2  0  0  0  0 
  5  7  1  0  0  0  0 
  9  6  2  0  0  0  0 
  8  9  1  0  0  0  0 
M  END
> <Name>
Benzo(b)thiophene

> <Source>
NIST2DMolFile

> <Tox>
3.260

> <CAS>
95-15-8

$$$$

  CDK

  8  8  0  0  0  0  0  0  0  0999 V2000
    0.0000   -2.3027    0.0000 O   0  0  0  0  0  0  0  0  0  0  0  0
    1.3289   -2.3027    0.0000 C   0  0  0  0  0  0  0  0  0  0  0  0
    1.9954   -1.1533    0.0000 C   0  0  0  0  0  0  0  0  0  0  0  0
    1.9954   -3.4560    0.0000 C   0  0  0  0  0  0  0  0  0  0  0  0
    1.3289   -0.0000    0.0000 N   0  0  0  0  0  0  0  0  0  0  0  0
    3.3243   -1.1533    0.0000 C   0  0  0  0  0  0  0  0  0  0  0  0
    3.3243   -3.4560    0.0000 C   0  0  0  0  0  0  0  0  0  0  0  0
    3.9907   -2.3027    0.0000 C   0  0  0  0  0  0  0  0  0  0  0  0
  1  2  1  0  0  0  0 
  2  3  2  0  0  0  0 
  2  4  1  0  0  0  0 
  3  5  1  0  0  0  0 
  3  6  1  0  0  0  0 
  7  4  2  0  0  0  0 
  6  8  2  0  0  0  0 
  8  7  1  0  0  0  0 
M  END
> <Name>
Phenol, 2-amino-

> <Source>
DSSTox2DMolFile

> <Tox>
3.940

> <CAS>
95-55-6

$$$$

  CDK

  8  8  0  0  0  0  0  0  0  0999 V2000
    3.9907   -2.3027    0.0000 O   0  0  0  0  0  0  0  0  0  0  0  0
    2.6618   -2.3027    0.0000 C   0  0  0  0  0  0  0  0  0  0  0  0
    1.9954   -3.4560    0.0000 C   0  0  0  0  0  0  0  0  0  0  0  0
    1.9954   -1.1533    0.0000 C   0  0  0  0  0  0  0  0  0  0  0  0
    0.6665   -3.4560    0.0000 C   0  0  0  0  0  0  0  0  0  0  0  0
    0.6665   -1.1533    0.0000 C   0  0  0  0  0  0  0  0  0  0  0  0
    2.6618   -0.0000    0.0000 Cl  0  0  0  0  0  0  0  0  0  0  0  0
    0.0000   -2.3027    0.0000 C   0  0  0  0  0  0  0  0  0  0  0  0
  1  2  1  0  0  0  0 
  2  3  2  0  0  0  0 
  2  4  1  0  0  0  0 
  3  5  1  0  0  0  0 
  6  4  2  0  0  0  0 
  4  7  1  0  0  0  0 
  5  8  2  0  0  0  0 
  8  6  1  0  0  0  0 
M  END
> <Name>
Phenol, 2-chloro-

> <Source>
DSSTox2DMolFile

> <Tox>
3.180

> <CAS>
95-57-8

$$$$

  CDK

  9  9  0  0  0  0  0  0  0  0999 V2000
    4.6082   -0.0000    0.0000 N   0  0  0  0  0  0  0  0  0  0  0  0
    3.4561   -0.6636    0.0000 C   0  0  0  0  0  0  0  0  0  0  0  0
    3.4561   -1.9953    0.0000 C   0  0  0  0  0  0  0  0  0  0  0  0
    2.3041   -0.0000    0.0000 C   0  0  0  0  0  0  0  0  0  0  0  0
    2.3041   -2.6589    0.0000 C   0  0  0  0  0  0  0  0  0  0  0  0
    4.6082   -2.6589    0.0000 C   0  0  0  0  0  0  0  0  0  0  0  0
    1.1520   -0.6636    0.0000 C   0  0  0  0  0  0  0  0  0  0  0  0
    1.1520   -1.9953    0.0000 C   0  0  0  0  0  0  0  0  0  0  0  0
    0.0000   -2.6589    0.0000 C   0  0  0  0  0  0  0  0  0  0  0  0
  1  2  1  0  0  0  0 
  2  3  2  0  0  0  0 
  2  4  1  0  0  0  0 
  3  5  1  0  0  0  0 
  3  6  1  0  0  0  0 
  7  4  2  0  0  0  0 
  5  8  2  0  0  0  0 
  8  7  1  0  0  0  0 
  8  9  1  0  0  0  0 
M  END
> <Name>
Benzenamine, 2,4-dimethyl-

> <Source>
DSSTox2DMolFile

> <Tox>
2.710

> <CAS>
95-68-1

$$$$

  CDK

  9  9  0  0  0  0  0  0  0  0999 V2000
    3.0114    0.7844    0.0002 N   0  0  0  0  0  0  0  0  0  0  0  0
    1.6365    0.5237    0.0000 C   0  0  0  0  0  0  0  0  0  0  0  0
    1.1394   -0.7991    0.0001 C   0  0  0  0  0  0  0  0  0  0  0  0
    0.7418    1.6110   -0.0002 C   0  0  0  0  0  0  0  0  0  0  0  0
   -0.2387   -1.0011    0.0001 C   0  0  0  0  0  0  0  0  0  0  0  0
    2.0447   -1.9785   -0.0002 C   0  0  0  0  0  0  0  0  0  0  0  0
   -0.6252    1.3896   -0.0002 C   0  0  0  0  0  0  0  0  0  0  0  0
   -1.1088    0.0840    0.0000 C   0  0  0  0  0  0  0  0  0  0  0  0
   -2.7757   -0.1871    0.0000 Cl  0  0  0  0  0  0  0  0  0  0  0  0
  1  2  1  0  0  0  0 
  2  3  1  0  0  0  0 
  2  4  2  0  0  0  0 
  3  5  2  0  0  0  0 
  3  6  1  0  0  0  0 
  7  4  1  0  0  0  0 
  5  8  1  0  0  0  0 
  8  7  2  0  0  0  0 
  8  9  1  0  0  0  0 
M  END
> <Name>
Benzenamine, 4-chloro-2-methyl-

> <Source>
DougDB3DMolFile

> <Tox>
3.350

> <CAS>
95-69-2

$$$$

  CDK

  9  9  0  0  0  0  0  0  0  0999 V2000
    4.6082   -2.6589    0.0000 C   0  0  0  0  0  0  0  0  0  0  0  0
    3.4561   -1.9953    0.0000 C   0  0  0  0  0  0  0  0  0  0  0  0
    2.3041   -2.6589    0.0000 C   0  0  0  0  0  0  0  0  0  0  0  0
    3.4561   -0.6636    0.0000 C   0  0  0  0  0  0  0  0  0  0  0  0
    1.1520   -1.9953    0.0000 C   0  0  0  0  0  0  0  0  0  0  0  0
    2.3041   -0.0000    0.0000 C   0  0  0  0  0  0  0  0  0  0  0  0
    0.0000   -2.6589    0.0000 Cl  0  0  0  0  0  0  0  0  0  0  0  0
    1.1520   -0.6636    0.0000 C   0  0  0  0  0  0  0  0  0  0  0  0
    0.0000   -0.0000    0.0000 Cl  0  0  0  0  0  0  0  0  0  0  0  0
  1  2  1  0  0  0  0 
  2  3  2  0  0  0  0 
  2  4  1  0  0  0  0 
  3  5  1  0  0  0  0 
  6  4  2  0  0  0  0 
  5  7  1  0  0  0  0 
  5  8  2  0  0  0  0 
  8  6  1  0  0  0  0 
  8  9  1  0  0  0  0 
M  END
> <Name>
Toluene, 3,4-dichloro- (8CI)

> <Source>
DSSTox2DMolFile

> <Tox>
4.070

> <CAS>
95-75-0

$$$$

  CDK

  9  9  0  0  0  0  0  0  0  0999 V2000
    2.6131    0.5025    0.0000 C   0  0  0  0  0  0  0  0  0  0  0  0
    2.6131    1.5075    0.0000 C   0  0  0  0  0  0  0  0  0  0  0  0
    1.7588    0.0503    0.0000 C   0  0  0  0  0  0  0  0  0  0  0  0
    1.7588    2.0101    0.0000 C   0  0  0  0  0  0  0  0  0  0  0  0
    3.5176    2.0101    0.0000 Cl  0  0  0  0  0  0  0  0  0  0  0  0
    0.9045    0.5025    0.0000 C   0  0  0  0  0  0  0  0  0  0  0  0
    0.9045    1.5075    0.0000 C   0  0  0  0  0  0  0  0  0  0  0  0
    1.7588    3.0151    0.0000 N   0  0  0  0  0  0  0  0  0  0  0  0
    0.0000    0.0000    0.0000 C   0  0  0  0  0  0  0  0  0  0  0  0
  2  1  2  0  0  0  0 
  1  3  1  0  0  0  0 
  4  2  1  0  0  0  0 
  2  5  1  0  0  0  0 
  3  6  2  0  0  0  0 
  7  4  2  0  0  0  0 
  4  8  1  0  0  0  0 
  6  7  1  0  0  0  0 
  6  9  1  0  0  0  0 
M  END
> <Name>
2-Chloro-5-methylaniline

> <Source>
NIST2DMolFile

> <Tox>
3.200

> <CAS>
95-81-8

$$$$

  CDK

  6  5  0  0  0  0  0  0  0  0999 V2000
    2.6616   -0.0000    0.0000 C   0  0  0  0  0  0  0  0  0  0  0  0
    1.9952   -1.1492    0.0000 C   0  0  0  0  0  0  0  0  0  0  0  0
    2.6616   -2.3025    0.0000 C   0  0  0  0  0  0  0  0  0  0  0  0
    0.6664   -1.1492    0.0000 C   0  0  0  0  0  0  0  0  0  0  0  0
    3.9905   -2.3025    0.0000 O   0  0  0  0  0  0  0  0  0  0  0  0
    0.0000   -2.3025    0.0000 C   0  0  0  0  0  0  0  0  0  0  0  0
  1  2  1  0  0  0  0 
  2  3  1  0  0  0  0 
  2  4  1  0  0  0  0 
  3  5  2  0  0  0  0 
  4  6  1  0  0  0  0 
M  END
> <Name>
Butyraldehyde, 2-methyl-

> <Source>
DSSTox2DMolFile

> <Tox>
2.689

> <CAS>
96-17-3

$$$$

  CDK

  6  5  0  0  0  0  0  0  0  0999 V2000
    2.6616   -0.0000    0.0000 O   0  0  0  0  0  0  0  0  0  0  0  0
    1.9952   -1.1492    0.0000 C   0  0  0  0  0  0  0  0  0  0  0  0
    2.6616   -2.3025    0.0000 C   0  0  0  0  0  0  0  0  0  0  0  0
    0.6664   -1.1492    0.0000 C   0  0  0  0  0  0  0  0  0  0  0  0
    3.9905   -2.3025    0.0000 O   0  0  0  0  0  0  0  0  0  0  0  0
    0.0000   -2.3025    0.0000 Cl  0  0  0  0  0  0  0  0  0  0  0  0
  1  2  1  0  0  0  0 
  2  3  1  0  0  0  0 
  2  4  1  0  0  0  0 
  3  5  1  0  0  0  0 
  4  6  1  0  0  0  0 
M  END
> <Name>
1,2-Propanediol, 3-chloro-

> <Source>
DSSTox2DMolFile

> <Tox>
1.370

> <CAS>
96-24-2

$$$$

  CDK

  6  5  0  0  0  0  0  0  0  0999 V2000
    2.5838    0.0000    0.0000 C   0  0  0  0  0  0  0  0  0  0  0  0
    1.7391    0.4969    0.0000 C   0  0  0  0  0  0  0  0  0  0  0  0
    3.4781    0.4969    0.0000 Br  0  0  0  0  0  0  0  0  0  0  0  0
    0.8944    0.0000    0.0000 O   0  0  0  0  0  0  0  0  0  0  0  0
    1.7391    1.4906    0.0000 O   0  0  0  0  0  0  0  0  0  0  0  0
    0.0000    0.4969    0.0000 C   0  0  0  0  0  0  0  0  0  0  0  0
  1  2  1  0  0  0  0 
  1  3  1  0  0  0  0 
  2  4  1  0  0  0  0 
  2  5  2  0  0  0  0 
  4  6  1  0  0  0  0 
M  END
> <Name>
methyl 2-bromoacetate

> <Source>
NIST2DMolFile

> <Tox>
4.959

> <CAS>
96-32-2

$$$$

  CDK

  6  6  0  0  0  0  0  0  0  0999 V2000
    0.8029    0.0000    0.0000 S   0  0  0  0  0  0  0  0  0  0  0  0
    1.6057    0.6021    0.0000 C   0  0  0  0  0  0  0  0  0  0  0  0
    0.0000    0.6021    0.0000 C   0  0  0  0  0  0  0  0  0  0  0  0
    1.3046    1.5555    0.0000 C   0  0  0  0  0  0  0  0  0  0  0  0
    2.4588    0.1004    0.0000 Cl  0  0  0  0  0  0  0  0  0  0  0  0
    0.3011    1.5555    0.0000 C   0  0  0  0  0  0  0  0  0  0  0  0
  2  1  1  0  0  0  0 
  1  3  1  0  0  0  0 
  4  2  2  0  0  0  0 
  2  5  1  0  0  0  0 
  3  6  2  0  0  0  0 
  6  4  1  0  0  0  0 
M  END
> <Name>
2-chlorothiophene

> <Source>
NIST2DMolFile

> <Tox>
2.410

> <CAS>
96-43-5

$$$$

  CDK

 13 13  0  0  0  0  0  0  0  0999 V2000
    5.7563   -0.0000    0.0000 Cl  0  0  0  0  0  0  0  0  0  0  0  0
    4.6092   -0.6634    0.0000 C   0  0  0  0  0  0  0  0  0  0  0  0
    4.6092   -1.9902    0.0000 C   0  0  0  0  0  0  0  0  0  0  0  0
    3.4552   -0.0000    0.0000 C   0  0  0  0  0  0  0  0  0  0  0  0
    3.4552   -2.6605    0.0000 C   0  0  0  0  0  0  0  0  0  0  0  0
    5.7563   -2.6605    0.0000 N   0  0  0  0  0  0  0  0  0  0  0  0
    2.3011   -0.6634    0.0000 C   0  0  0  0  0  0  0  0  0  0  0  0
    2.3011   -1.9902    0.0000 C   0  0  0  0  0  0  0  0  0  0  0  0
    5.7563   -3.9873    0.0000 O   0  0  0  0  0  0  0  0  0  0  0  0
    6.9103   -1.9902    0.0000 O   0  0  0  0  0  0  0  0  0  0  0  0
    1.1540   -2.6605    0.0000 N   0  0  0  0  0  0  0  0  0  0  0  0
    1.1540   -3.9873    0.0000 O   0  0  0  0  0  0  0  0  0  0  0  0
    0.0000   -1.9902    0.0000 O   0  0  0  0  0  0  0  0  0  0  0  0
  1  2  1  0  0  0  0 
  2  3  2  0  0  0  0 
  2  4  1  0  0  0  0 
  3  5  1  0  0  0  0 
  3  6  1  0  0  0  0 
  7  4  2  0  0  0  0 
  5  8  2  0  0  0  0 
  6  9  2  0  0  0  0 
  6 10  1  0  0  0  0 
  8  7  1  0  0  0  0 
  8 11  1  0  0  0  0 
 11 12  2  0  0  0  0 
 11 13  1  0  0  0  0 
M  CHG  1   6   1
M  CHG  1  10  -1
M  CHG  1  11   1
M  CHG  1  13  -1
M  END
> <Name>
Benzene, 1-chloro-2,4-dinitro-

> <Source>
DSSTox2DMolFile

> <Tox>
5.160

> <CAS>
97-00-7

$$$$

  CDK

 10  9  0  0  0  0  0  0  0  0999 V2000
    4.6578   -1.1511    0.0000 C   0  0  0  0  0  0  0  0  0  0  0  0
    3.9924   -0.0000    0.0000 O   0  0  0  0  0  0  0  0  0  0  0  0
    3.9924   -2.3023    0.0000 O   0  0  0  0  0  0  0  0  0  0  0  0
    5.9885   -1.1511    0.0000 C   0  0  0  0  0  0  0  0  0  0  0  0
    2.6616   -2.3023    0.0000 C   0  0  0  0  0  0  0  0  0  0  0  0
    6.6539   -0.0000    0.0000 C   0  0  0  0  0  0  0  0  0  0  0  0
    6.6539   -2.3023    0.0000 C   0  0  0  0  0  0  0  0  0  0  0  0
    1.9962   -1.1511    0.0000 C   0  0  0  0  0  0  0  0  0  0  0  0
    0.6654   -1.1511    0.0000 C   0  0  0  0  0  0  0  0  0  0  0  0
    0.0000   -0.0000    0.0000 C   0  0  0  0  0  0  0  0  0  0  0  0
  1  2  2  0  0  0  0 
  1  3  1  0  0  0  0 
  1  4  1  0  0  0  0 
  3  5  1  0  0  0  0 
  4  6  1  0  0  0  0 
  4  7  2  0  0  0  0 
  5  8  1  0  0  0  0 
  8  9  1  0  0  0  0 
  9 10  1  0  0  0  0 
M  END
> <Name>
2-Propenoic acid, 2-methyl-, butyl ester

> <Source>
DSSTox2DMolFile

> <Tox>
2.730

> <CAS>
97-88-1

$$$$

  CDK

  7  7  0  0  0  0  0  0  0  0999 V2000
    0.0000   -1.5998    0.0000 O   0  0  0  0  0  0  0  0  0  0  0  0
    1.1503   -2.2653    0.0000 C   0  0  0  0  0  0  0  0  0  0  0  0
    2.3050   -1.5998    0.0000 C   0  0  0  0  0  0  0  0  0  0  0  0
    2.4416   -0.2777    0.0000 C   0  0  0  0  0  0  0  0  0  0  0  0
    3.5169   -2.1419    0.0000 O   0  0  0  0  0  0  0  0  0  0  0  0
    3.7417   -0.0000    0.0000 C   0  0  0  0  0  0  0  0  0  0  0  0
    4.4072   -1.1547    0.0000 C   0  0  0  0  0  0  0  0  0  0  0  0
  1  2  2  0  0  0  0 
  2  3  1  0  0  0  0 
  3  4  2  0  0  0  0 
  3  5  1  0  0  0  0 
  4  6  1  0  0  0  0 
  7  5  1  0  0  0  0 
  6  7  2  0  0  0  0 
M  END
> <Name>
2-Furancarboxaldehyde

> <Source>
DSSTox2DMolFile

> <Tox>
2.980

> <CAS>
98-01-1

$$$$

  CDK

 10 10  0  0  0  0  0  0  0  0999 V2000
    3.9873   -0.0000    0.0000 Cl  0  0  0  0  0  0  0  0  0  0  0  0
    3.9873   -1.3291    0.0000 C   0  0  0  0  0  0  0  0  0  0  0  0
    2.6582   -1.3291    0.0000 C   0  0  0  0  0  0  0  0  0  0  0  0
    5.3164   -1.3291    0.0000 Cl  0  0  0  0  0  0  0  0  0  0  0  0
    3.9873   -2.6582    0.0000 Cl  0  0  0  0  0  0  0  0  0  0  0  0
    1.9936   -2.4827    0.0000 C   0  0  0  0  0  0  0  0  0  0  0  0
    1.9936   -0.1754    0.0000 C   0  0  0  0  0  0  0  0  0  0  0  0
    0.6645   -2.4827    0.0000 C   0  0  0  0  0  0  0  0  0  0  0  0
    0.6645   -0.1754    0.0000 C   0  0  0  0  0  0  0  0  0  0  0  0
    0.0000   -1.3291    0.0000 C   0  0  0  0  0  0  0  0  0  0  0  0
  1  2  1  0  0  0  0 
  2  3  1  0  0  0  0 
  2  4  1  0  0  0  0 
  2  5  1  0  0  0  0 
  3  6  2  0  0  0  0 
  3  7  1  0  0  0  0 
  6  8  1  0  0  0  0 
  9  7  2  0  0  0  0 
  8 10  2  0  0  0  0 
 10  9  1  0  0  0  0 
M  END
> <Name>
Toluene, alpha,alpha,alpha-trichloro-

> <Source>
DSSTox2DMolFile

> <Tox>
2.730

> <CAS>
98-07-7

$$$$

  CDK

  9  9  0  0  0  0  0  0  0  0999 V2000
    4.6539   -1.1542    0.0000 C   0  0  0  0  0  0  0  0  0  0  0  0
    3.9884   -2.3037    0.0000 C   0  0  0  0  0  0  0  0  0  0  0  0
    3.9884   -0.0000    0.0000 C   0  0  0  0  0  0  0  0  0  0  0  0
    2.6574   -2.3037    0.0000 C   0  0  0  0  0  0  0  0  0  0  0  0
    2.6574   -0.0000    0.0000 C   0  0  0  0  0  0  0  0  0  0  0  0
    1.9965   -1.1542    0.0000 C   0  0  0  0  0  0  0  0  0  0  0  0
    0.6655   -1.1542    0.0000 C   0  0  0  0  0  0  0  0  0  0  0  0
    0.0000   -2.3037    0.0000 O   0  0  0  0  0  0  0  0  0  0  0  0
    0.0000   -0.0000    0.0000 C   0  0  0  0  0  0  0  0  0  0  0  0
  1  2  2  0  0  0  0 
  1  3  1  0  0  0  0 
  2  4  1  0  0  0  0 
  3  5  2  0  0  0  0 
  4  6  2  0  0  0  0 
  6  5  1  0  0  0  0 
  6  7  1  0  0  0  0 
  7  8  1  0  0  0  0 
  7  9  1  0  0  0  0 
M  END
> <Name>
(1)-alpha-Methylbenzyl alcohol

> <Source>
DSSTox2DMolFile

> <Tox>
2.340

> <CAS>
98-85-1

$$$$

  CDK

 11 11  0  0  0  0  0  0  0  0999 V2000
    5.3194   -2.3037    0.0000 N   0  0  0  0  0  0  0  0  0  0  0  0
    5.9835   -1.1488    0.0000 O   0  0  0  0  0  0  0  0  0  0  0  0
    5.9835   -3.4525    0.0000 O   0  0  0  0  0  0  0  0  0  0  0  0
    3.9910   -2.3037    0.0000 C   0  0  0  0  0  0  0  0  0  0  0  0
    3.3269   -3.4525    0.0000 C   0  0  0  0  0  0  0  0  0  0  0  0
    3.3269   -1.1488    0.0000 C   0  0  0  0  0  0  0  0  0  0  0  0
    1.9925   -3.4525    0.0000 C   0  0  0  0  0  0  0  0  0  0  0  0
    1.9925   -1.1488    0.0000 C   0  0  0  0  0  0  0  0  0  0  0  0
    1.3283   -2.3037    0.0000 C   0  0  0  0  0  0  0  0  0  0  0  0
    1.3283   -0.0000    0.0000 Cl  0  0  0  0  0  0  0  0  0  0  0  0
    0.0000   -2.3037    0.0000 Cl  0  0  0  0  0  0  0  0  0  0  0  0
  1  2  2  0  0  0  0 
  1  3  1  0  0  0  0 
  1  4  1  0  0  0  0 
  4  5  2  0  0  0  0 
  4  6  1  0  0  0  0 
  5  7  1  0  0  0  0 
  8  6  2  0  0  0  0 
  7  9  2  0  0  0  0 
  9  8  1  0  0  0  0 
  8 10  1  0  0  0  0 
  9 11  1  0  0  0  0 
M  CHG  1   1   1
M  CHG  1   3  -1
M  END
> <Name>
Benzene, 1,2-dichloro-4-nitro-

> <Source>
DSSTox2DMolFile

> <Tox>
4.160

> <CAS>
99-54-7

$$$$

  CDK

 11 11  0  0  0  0  0  0  0  0999 V2000
    0.0000   -3.4525    0.0000 O   0  0  0  0  0  0  0  0  0  0  0  0
    0.6642   -2.3037    0.0000 N   0  0  0  0  0  0  0  0  0  0  0  0
    1.9925   -2.3037    0.0000 C   0  0  0  0  0  0  0  0  0  0  0  0
    0.0000   -1.1488    0.0000 O   0  0  0  0  0  0  0  0  0  0  0  0
    2.6567   -1.1488    0.0000 C   0  0  0  0  0  0  0  0  0  0  0  0
    2.6567   -3.4525    0.0000 C   0  0  0  0  0  0  0  0  0  0  0  0
    3.9910   -1.1488    0.0000 C   0  0  0  0  0  0  0  0  0  0  0  0
    3.9910   -3.4525    0.0000 C   0  0  0  0  0  0  0  0  0  0  0  0
    4.6552   -2.3037    0.0000 C   0  0  0  0  0  0  0  0  0  0  0  0
    4.6552   -0.0000    0.0000 N   0  0  0  0  0  0  0  0  0  0  0  0
    5.9835   -2.3037    0.0000 O   0  0  0  0  0  0  0  0  0  0  0  0
  1  2  2  0  0  0  0 
  2  3  1  0  0  0  0 
  2  4  1  0  0  0  0 
  3  5  2  0  0  0  0 
  3  6  1  0  0  0  0 
  5  7  1  0  0  0  0 
  8  6  2  0  0  0  0 
  7  9  2  0  0  0  0 
  7 10  1  0  0  0  0 
  9  8  1  0  0  0  0 
  9 11  1  0  0  0  0 
M  CHG  1   2   1
M  CHG  1   4  -1
M  END
> <Name>
Phenol, 2-amino-4-nitro-

> <Source>
DSSTox2DMolFile

> <Tox>
3.470

> <CAS>
99-57-0

$$$$

  CDK

 11 11  0  0  0  0  0  0  0  0999 V2000
    2.3036   -2.6491    0.0000 C   0  0  0  0  0  0  0  0  0  0  0  0
    2.2978   -3.9852    0.0000 C   0  0  0  0  0  0  0  0  0  0  0  0
    3.4611   -1.9868    0.0000 C   0  0  0  0  0  0  0  0  0  0  0  0
    1.1518   -1.9868    0.0000 C   0  0  0  0  0  0  0  0  0  0  0  0
    3.4496   -4.6532    0.0000 C   0  0  0  0  0  0  0  0  0  0  0  0
    4.6071   -2.6548    0.0000 C   0  0  0  0  0  0  0  0  0  0  0  0
    1.1518   -0.6508    0.0000 C   0  0  0  0  0  0  0  0  0  0  0  0
    0.0000   -2.6491    0.0000 C   0  0  0  0  0  0  0  0  0  0  0  0
    4.6071   -3.9909    0.0000 C   0  0  0  0  0  0  0  0  0  0  0  0
    0.0173   -0.0000    0.0000 C   0  0  0  0  0  0  0  0  0  0  0  0
    5.7589   -4.6589    0.0000 O   0  0  0  0  0  0  0  0  0  0  0  0
  1  2  2  0  0  0  0 
  1  3  1  0  0  0  0 
  1  4  1  0  0  0  0 
  2  5  1  0  0  0  0 
  3  6  2  0  0  0  0 
  4  7  1  0  0  0  0 
  4  8  1  0  0  0  0 
  9  5  2  0  0  0  0 
  9  6  1  0  0  0  0 
  7 10  1  0  0  0  0 
  9 11  1  0  0  0  0 
M  END
> <Name>
Phenol, 4-(1-methylpropyl)-

> <Source>
DSSTox2DMolFile

> <Tox>
3.980

> <CAS>
99-71-8

$$$$

  CDK

 10 10  0  0  0  0  0  0  0  0999 V2000
    4.4789    1.7418    0.0000 C   0  0  0  0  0  0  0  0  0  0  0  0
    3.9812    0.8460    0.0000 C   0  0  0  0  0  0  0  0  0  0  0  0
    4.4789    0.0000    0.0000 C   0  0  0  0  0  0  0  0  0  0  0  0
    2.9859    0.8460    0.0000 C   0  0  0  0  0  0  0  0  0  0  0  0
    2.4883    0.0000    0.0000 C   0  0  0  0  0  0  0  0  0  0  0  0
    2.4883    1.7418    0.0000 C   0  0  0  0  0  0  0  0  0  0  0  0
    1.4930    0.0000    0.0000 C   0  0  0  0  0  0  0  0  0  0  0  0
    1.4930    1.7418    0.0000 C   0  0  0  0  0  0  0  0  0  0  0  0
    0.9953    0.8460    0.0000 C   0  0  0  0  0  0  0  0  0  0  0  0
    0.0000    0.8460    0.0000 O   0  0  0  0  0  0  0  0  0  0  0  0
  1  2  1  0  0  0  0 
  2  3  1  0  0  0  0 
  2  4  1  0  0  0  0 
  5  4  2  0  0  0  0 
  4  6  1  0  0  0  0 
  7  5  1  0  0  0  0 
  6  8  2  0  0  0  0 
  9  7  2  0  0  0  0 
  8  9  1  0  0  0  0 
 10  9  1  0  0  0  0 
M  END
> <Name>
Phenol, 4-(1-methylethyl)-

> <Source>
NIST2DMolFile

> <Tox>
3.470

> <CAS>
99-89-8

$$$$

  CDK

 10 10  0  0  0  0  0  0  0  0999 V2000
    5.3365   -1.1393    0.0000 C   0  0  0  0  0  0  0  0  0  0  0  0
    5.9961   -2.2965    0.0000 C   0  0  0  0  0  0  0  0  0  0  0  0
    5.9961   -0.0000    0.0000 O   0  0  0  0  0  0  0  0  0  0  0  0
    4.0054   -1.1393    0.0000 C   0  0  0  0  0  0  0  0  0  0  0  0
    3.3278   -2.2965    0.0000 C   0  0  0  0  0  0  0  0  0  0  0  0
    3.3278   -0.0000    0.0000 C   0  0  0  0  0  0  0  0  0  0  0  0
    1.9907   -2.2965    0.0000 C   0  0  0  0  0  0  0  0  0  0  0  0
    1.9907   -0.0000    0.0000 C   0  0  0  0  0  0  0  0  0  0  0  0
    1.3371   -1.1393    0.0000 C   0  0  0  0  0  0  0  0  0  0  0  0
    0.0000   -1.1393    0.0000 O   0  0  0  0  0  0  0  0  0  0  0  0
  1  2  1  0  0  0  0 
  1  3  2  0  0  0  0 
  1  4  1  0  0  0  0 
  4  5  2  0  0  0  0 
  4  6  1  0  0  0  0 
  5  7  1  0  0  0  0 
  6  8  2  0  0  0  0 
  7  9  2  0  0  0  0 
  8  9  1  0  0  0  0 
  9 10  1  0  0  0  0 
M  END
> <Name>
1-(4-hydroxyphenyl)ethanone

> <Source>
DSSTox2DMolFile

> <Tox>
2.700

> <CAS>
99-93-4

$$$$

  CDK

 10 10  0  0  0  0  0  0  0  0999 V2000
    3.3279   -2.4780    0.0000 C   0  0  0  0  0  0  0  0  0  0  0  0
    1.9991   -2.4780    0.0000 C   0  0  0  0  0  0  0  0  0  0  0  0
    3.9863   -1.3228    0.0000 C   0  0  0  0  0  0  0  0  0  0  0  0
    1.3288   -1.3228    0.0000 C   0  0  0  0  0  0  0  0  0  0  0  0
    3.3279   -0.1915    0.0000 C   0  0  0  0  0  0  0  0  0  0  0  0
    5.3150   -1.3228    0.0000 N   0  0  0  0  0  0  0  0  0  0  0  0
    1.9991   -0.1915    0.0000 C   0  0  0  0  0  0  0  0  0  0  0  0
    0.0000   -1.3228    0.0000 C   0  0  0  0  0  0  0  0  0  0  0  0
    5.9854   -2.4780    0.0000 O   0  0  0  0  0  0  0  0  0  0  0  0
    5.6323   -0.0000    0.0000 O   0  0  0  0  0  0  0  0  0  0  0  0
  1  2  2  0  0  0  0 
  1  3  1  0  0  0  0 
  2  4  1  0  0  0  0 
  3  5  2  0  0  0  0 
  3  6  1  0  0  0  0 
  4  7  2  0  0  0  0 
  4  8  1  0  0  0  0 
  7  5  1  0  0  0  0 
  6  9  2  0  0  0  0 
  6 10  1  0  0  0  0 
M  CHG  1   6   1
M  CHG  1  10  -1
M  END
> <Name>
Benzene, 1-methyl-4-nitro-

> <Source>
DSSTox2DMolFile

> <Tox>
3.650

> <CAS>
99-99-0

$$$$

  CDK

 10 10  0  0  0  0  0  0  0  0999 V2000
    0.0000   -2.3031    0.0000 O   0  0  0  0  0  0  0  0  0  0  0  0
    0.6640   -1.1546    0.0000 N   0  0  0  0  0  0  0  0  0  0  0  0
    1.9921   -1.1546    0.0000 C   0  0  0  0  0  0  0  0  0  0  0  0
    0.0000   -0.0000    0.0000 O   0  0  0  0  0  0  0  0  0  0  0  0
    2.6561   -0.0000    0.0000 C   0  0  0  0  0  0  0  0  0  0  0  0
    2.6561   -2.3031    0.0000 C   0  0  0  0  0  0  0  0  0  0  0  0
    3.9901   -0.0000    0.0000 C   0  0  0  0  0  0  0  0  0  0  0  0
    3.9901   -2.3031    0.0000 C   0  0  0  0  0  0  0  0  0  0  0  0
    4.6542   -1.1546    0.0000 C   0  0  0  0  0  0  0  0  0  0  0  0
    5.9822   -1.1546    0.0000 Cl  0  0  0  0  0  0  0  0  0  0  0  0
  1  2  2  0  0  0  0 
  2  3  1  0  0  0  0 
  2  4  1  0  0  0  0 
  3  5  2  0  0  0  0 
  3  6  1  0  0  0  0 
  5  7  1  0  0  0  0 
  8  6  2  0  0  0  0 
  7  9  2  0  0  0  0 
  9  8  1  0  0  0  0 
  9 10  1  0  0  0  0 
M  CHG  1   2   1
M  CHG  1   4  -1
M  END
> <Name>
Benzene, 1-chloro-4-nitro-

> <Source>
DSSTox2DMolFile

> <Tox>
3.430

> <CAS>
100-00-5

$$$$

  CDK

 10 10  0  0  0  0  0  0  0  0999 V2000
    0.0000   -2.3031    0.0000 O   0  0  0  0  0  0  0  0  0  0  0  0
    0.6640   -1.1546    0.0000 N   0  0  0  0  0  0  0  0  0  0  0  0
    1.9921   -1.1546    0.0000 C   0  0  0  0  0  0  0  0  0  0  0  0
    0.0000   -0.0000    0.0000 O   0  0  0  0  0  0  0  0  0  0  0  0
    2.6561   -0.0000    0.0000 C   0  0  0  0  0  0  0  0  0  0  0  0
    2.6561   -2.3031    0.0000 C   0  0  0  0  0  0  0  0  0  0  0  0
    3.9901   -0.0000    0.0000 C   0  0  0  0  0  0  0  0  0  0  0  0
    3.9901   -2.3031    0.0000 C   0  0  0  0  0  0  0  0  0  0  0  0
    4.6542   -1.1546    0.0000 C   0  0  0  0  0  0  0  0  0  0  0  0
    5.9822   -1.1546    0.0000 N   0  0  0  0  0  0  0  0  0  0  0  0
  1  2  2  0  0  0  0 
  2  3  1  0  0  0  0 
  2  4  1  0  0  0  0 
  3  5  2  0  0  0  0 
  3  6  1  0  0  0  0 
  5  7  1  0  0  0  0 
  8  6  2  0  0  0  0 
  7  9  2  0  0  0  0 
  9  8  1  0  0  0  0 
  9 10  1  0  0  0  0 
M  CHG  1   2   1
M  CHG  1   4  -1
M  END
> <Name>
Benzenamine, 4-nitro-

> <Source>
DSSTox2DMolFile

> <Tox>
4.120

> <CAS>
100-01-6

$$$$

  CDK

 12 12  0  0  0  0  0  0  0  0999 V2000
    4.6567   -1.1482    0.0000 C   0  0  0  0  0  0  0  0  0  0  0  0
    3.9869   -2.3044    0.0000 C   0  0  0  0  0  0  0  0  0  0  0  0
    3.9869   -0.0000    0.0000 C   0  0  0  0  0  0  0  0  0  0  0  0
    5.9883   -1.1482    0.0000 O   0  0  0  0  0  0  0  0  0  0  0  0
    2.6553   -2.3044    0.0000 C   0  0  0  0  0  0  0  0  0  0  0  0
    2.6553   -0.0000    0.0000 C   0  0  0  0  0  0  0  0  0  0  0  0
    6.6421   -0.0000    0.0000 C   0  0  0  0  0  0  0  0  0  0  0  0
    2.0014   -1.1482    0.0000 C   0  0  0  0  0  0  0  0  0  0  0  0
    7.9737   -0.0000    0.0000 C   0  0  0  0  0  0  0  0  0  0  0  0
    0.6698   -1.1482    0.0000 N   0  0  0  0  0  0  0  0  0  0  0  0
    0.0000   -2.3044    0.0000 O   0  0  0  0  0  0  0  0  0  0  0  0
    0.0000   -0.0000    0.0000 O   0  0  0  0  0  0  0  0  0  0  0  0
  1  2  2  0  0  0  0 
  1  3  1  0  0  0  0 
  1  4  1  0  0  0  0 
  2  5  1  0  0  0  0 
  6  3  2  0  0  0  0 
  4  7  1  0  0  0  0 
  5  8  2  0  0  0  0 
  8  6  1  0  0  0  0 
  7  9  1  0  0  0  0 
  8 10  1  0  0  0  0 
 10 11  1  0  0  0  0 
 10 12  2  0  0  0  0 
M  CHG  1  10   1
M  CHG  1  11  -1
M  END
> <Name>
Benzene, 1-ethoxy-4-nitro-

> <Source>
DSSTox2DMolFile

> <Tox>
3.830

> <CAS>
100-29-8

$$$$

  CDK

  8  8  0  0  0  0  0  0  0  0999 V2000
    0.0000   -0.0000    0.0000 Cl  0  0  0  0  0  0  0  0  0  0  0  0
    0.6654   -1.1540    0.0000 C   0  0  0  0  0  0  0  0  0  0  0  0
    1.9962   -1.1540    0.0000 C   0  0  0  0  0  0  0  0  0  0  0  0
    2.6569   -0.0000    0.0000 C   0  0  0  0  0  0  0  0  0  0  0  0
    2.6569   -2.3033    0.0000 C   0  0  0  0  0  0  0  0  0  0  0  0
    3.9877   -0.0000    0.0000 C   0  0  0  0  0  0  0  0  0  0  0  0
    3.9877   -2.3033    0.0000 C   0  0  0  0  0  0  0  0  0  0  0  0
    4.6531   -1.1540    0.0000 C   0  0  0  0  0  0  0  0  0  0  0  0
  1  2  1  0  0  0  0 
  2  3  1  0  0  0  0 
  3  4  2  0  0  0  0 
  3  5  1  0  0  0  0 
  4  6  1  0  0  0  0 
  7  5  2  0  0  0  0 
  6  8  2  0  0  0  0 
  8  7  1  0  0  0  0 
M  END
> <Name>
Benzene, (chloromethyl)-

> <Source>
DSSTox2DMolFile

> <Tox>
3.060

> <CAS>
100-44-7

$$$$

  CDK

  8  8  0  0  0  0  0  0  0  0999 V2000
    0.0000   -1.1545    0.0000 N   0  0  0  0  0  0  0  0  0  0  0  0
    1.3300   -1.1545    0.0000 C   0  0  0  0  0  0  0  0  0  0  0  0
    2.6600   -1.1545    0.0000 C   0  0  0  0  0  0  0  0  0  0  0  0
    3.3250   -0.0000    0.0000 C   0  0  0  0  0  0  0  0  0  0  0  0
    3.3250   -2.3036    0.0000 C   0  0  0  0  0  0  0  0  0  0  0  0
    4.6551   -0.0000    0.0000 C   0  0  0  0  0  0  0  0  0  0  0  0
    4.6551   -2.3036    0.0000 C   0  0  0  0  0  0  0  0  0  0  0  0
    5.3201   -1.1545    0.0000 C   0  0  0  0  0  0  0  0  0  0  0  0
  1  2  3  0  0  0  0 
  2  3  1  0  0  0  0 
  3  4  2  0  0  0  0 
  3  5  1  0  0  0  0 
  4  6  1  0  0  0  0 
  7  5  2  0  0  0  0 
  6  8  2  0  0  0  0 
  8  7  1  0  0  0  0 
M  END
> <Name>
Benzonitrile

> <Source>
DSSTox2DMolFile

> <Tox>
2.480

> <CAS>
100-47-0

$$$$

  CDK

  8  8  0  0  0  0  0  0  0  0999 V2000
    0.0000   -0.0000    0.0000 O   0  0  0  0  0  0  0  0  0  0  0  0
    0.6654   -1.1540    0.0000 C   0  0  0  0  0  0  0  0  0  0  0  0
    1.9962   -1.1540    0.0000 C   0  0  0  0  0  0  0  0  0  0  0  0
    2.6569   -0.0000    0.0000 C   0  0  0  0  0  0  0  0  0  0  0  0
    2.6569   -2.3033    0.0000 C   0  0  0  0  0  0  0  0  0  0  0  0
    3.9877   -0.0000    0.0000 C   0  0  0  0  0  0  0  0  0  0  0  0
    3.9877   -2.3033    0.0000 C   0  0  0  0  0  0  0  0  0  0  0  0
    4.6531   -1.1540    0.0000 C   0  0  0  0  0  0  0  0  0  0  0  0
  1  2  1  0  0  0  0 
  2  3  1  0  0  0  0 
  3  4  2  0  0  0  0 
  3  5  1  0  0  0  0 
  4  6  1  0  0  0  0 
  7  5  2  0  0  0  0 
  6  8  2  0  0  0  0 
  8  7  1  0  0  0  0 
M  END
> <Name>
Benzenemethanol

> <Source>
DSSTox2DMolFile

> <Tox>
2.170

> <CAS>
100-51-6

$$$$

  CDK

  8  8  0  0  0  0  0  0  0  0999 V2000
    0.0000   -2.3042    0.0000 O   0  0  0  0  0  0  0  0  0  0  0  0
    0.6656   -1.1544    0.0000 N   0  0  0  0  0  0  0  0  0  0  0  0
    1.9969   -1.1544    0.0000 C   0  0  0  0  0  0  0  0  0  0  0  0
    2.6579   -0.0000    0.0000 C   0  0  0  0  0  0  0  0  0  0  0  0
    2.6579   -2.3042    0.0000 C   0  0  0  0  0  0  0  0  0  0  0  0
    3.9892   -0.0000    0.0000 C   0  0  0  0  0  0  0  0  0  0  0  0
    3.9892   -2.3042    0.0000 C   0  0  0  0  0  0  0  0  0  0  0  0
    4.6549   -1.1544    0.0000 C   0  0  0  0  0  0  0  0  0  0  0  0
  1  2  1  0  0  0  0 
  2  3  2  0  0  0  0 
  3  4  1  0  0  0  0 
  3  5  1  0  0  0  0 
  4  6  1  0  0  0  0 
  7  5  1  0  0  0  0 
  6  8  1  0  0  0  0 
  8  7  1  0  0  0  0 
M  END
> <Name>
Cyclohexanone, oxime

> <Source>
DSSTox2DMolFile

> <Tox>
2.204

> <CAS>
100-64-1

$$$$

  CDK

  8  8  0  0  0  0  0  0  0  0999 V2000
   -0.4736   -0.2196    0.0007 C   0  0  0  0  0  0  0  0  0  0  0  0
    0.4326   -1.2928   -0.0003 C   0  0  0  0  0  0  0  0  0  0  0  0
   -0.0143    1.1009    0.0009 C   0  0  0  0  0  0  0  0  0  0  0  0
   -1.7996   -0.6065    0.0021 O   0  0  0  0  0  0  0  0  0  0  0  0
    1.7941   -1.0283   -0.0007 C   0  0  0  0  0  0  0  0  0  0  0  0
    1.3564    1.3407    0.0003 C   0  0  0  0  0  0  0  0  0  0  0  0
   -2.7712    0.4094   -0.0021 C   0  0  0  0  0  0  0  0  0  0  0  0
    2.2589    0.2850   -0.0005 C   0  0  0  0  0  0  0  0  0  0  0  0
  1  2  1  0  0  0  0 
  1  3  2  0  0  0  0 
  1  4  1  0  0  0  0 
  2  5  2  0  0  0  0 
  6  3  1  0  0  0  0 
  4  7  1  0  0  0  0 
  5  8  1  0  0  0  0 
  8  6  2  0  0  0  0 
M  END
> <Name>
Benzene, methoxy-

> <Source>
DougDB3DMolFile

> <Tox>
2.900

> <CAS>
100-66-3

$$$$

  CDK

 14 15  0  0  0  0  0  0  0  0999 V2000
    0.0000   -2.6606    0.0000 O   0  0  0  0  0  0  0  0  0  0  0  0
    1.1529   -1.9995    0.0000 C   0  0  0  0  0  0  0  0  0  0  0  0
    1.1529   -0.6692    0.0000 C   0  0  0  0  0  0  0  0  0  0  0  0
    2.3059   -2.6606    0.0000 C   0  0  0  0  0  0  0  0  0  0  0  0
    2.3059   -0.0000    0.0000 C   0  0  0  0  0  0  0  0  0  0  0  0
    3.4588   -1.9995    0.0000 C   0  0  0  0  0  0  0  0  0  0  0  0
    3.4588   -0.6692    0.0000 C   0  0  0  0  0  0  0  0  0  0  0  0
    4.6118   -2.6606    0.0000 N   0  0  0  0  0  0  0  0  0  0  0  0
    5.7567   -1.9995    0.0000 C   0  0  0  0  0  0  0  0  0  0  0  0
    5.7567   -0.6692    0.0000 C   0  0  0  0  0  0  0  0  0  0  0  0
    6.9096   -2.6606    0.0000 C   0  0  0  0  0  0  0  0  0  0  0  0
    6.9096   -0.0000    0.0000 C   0  0  0  0  0  0  0  0  0  0  0  0
    8.0626   -1.9995    0.0000 C   0  0  0  0  0  0  0  0  0  0  0  0
    8.0626   -0.6692    0.0000 C   0  0  0  0  0  0  0  0  0  0  0  0
  1  2  1  0  0  0  0 
  2  3  2  0  0  0  0 
  2  4  1  0  0  0  0 
  3  5  1  0  0  0  0 
  6  4  2  0  0  0  0 
  5  7  2  0  0  0  0 
  7  6  1  0  0  0  0 
  6  8  1  0  0  0  0 
  8  9  1  0  0  0  0 
  9 10  2  0  0  0  0 
  9 11  1  0  0  0  0 
 10 12  1  0  0  0  0 
 13 11  2  0  0  0  0 
 12 14  2  0  0  0  0 
 14 13  1  0  0  0  0 
M  END
> <Name>
Phenol, m-anilino- (8CI)

> <Source>
DSSTox2DMolFile

> <Tox>
4.010

> <CAS>
101-18-8

$$$$

  CDK

 11 11  0  0  0  0  0  0  0  0999 V2000
    1.7226    0.4293   -0.2361 C   0  0  0  0  0  0  0  0  0  0  0  0
    0.5990    0.4163   -1.2545 C   0  0  0  0  0  0  0  0  0  0  0  0
    2.1190    1.3724    0.4183 O   0  0  0  0  0  0  0  0  0  0  0  0
    2.3319   -0.7861   -0.0917 O   0  0  0  0  0  0  0  0  0  0  0  0
   -0.7124    0.1576   -0.5856 C   0  0  0  0  0  0  0  0  0  0  0  0
    3.3787   -0.9135    0.8465 C   0  0  0  0  0  0  0  0  0  0  0  0
   -1.4370    1.2150   -0.0328 C   0  0  0  0  0  0  0  0  0  0  0  0
   -1.2255   -1.1388   -0.5252 C   0  0  0  0  0  0  0  0  0  0  0  0
   -2.6627    0.9742    0.5774 C   0  0  0  0  0  0  0  0  0  0  0  0
   -2.4522   -1.3739    0.0855 C   0  0  0  0  0  0  0  0  0  0  0  0
   -3.1715   -0.3190    0.6370 C   0  0  0  0  0  0  0  0  0  0  0  0
  1  2  1  0  0  0  0 
  1  3  2  0  0  0  0 
  1  4  1  0  0  0  0 
  2  5  1  0  0  0  0 
  4  6  1  0  0  0  0 
  5  7  1  0  0  0  0 
  5  8  2  0  0  0  0 
  7  9  2  0  0  0  0 
 10  8  1  0  0  0  0 
  9 11  1  0  0  0  0 
 11 10  2  0  0  0  0 
M  END
> <Name>
Acetic acid, phenyl-, methyl ester

> <Source>
DougDB3DMolFile

> <Tox>
2.600

> <CAS>
101-41-7

$$$$

  CDK

 15 16  0  0  0  0  0  0  0  0999 V2000
    9.9758   -2.3044    0.0000 O   0  0  0  0  0  0  0  0  0  0  0  0
    8.6490   -2.3044    0.0000 C   0  0  0  0  0  0  0  0  0  0  0  0
    7.9806   -3.4516    0.0000 C   0  0  0  0  0  0  0  0  0  0  0  0
    7.9806   -1.1472    0.0000 C   0  0  0  0  0  0  0  0  0  0  0  0
    6.6538   -3.4516    0.0000 C   0  0  0  0  0  0  0  0  0  0  0  0
    6.6538   -1.1472    0.0000 C   0  0  0  0  0  0  0  0  0  0  0  0
    5.9855   -2.3044    0.0000 C   0  0  0  0  0  0  0  0  0  0  0  0
    4.6587   -2.3044    0.0000 O   0  0  0  0  0  0  0  0  0  0  0  0
    3.9903   -1.1472    0.0000 C   0  0  0  0  0  0  0  0  0  0  0  0
    2.6635   -1.1472    0.0000 C   0  0  0  0  0  0  0  0  0  0  0  0
    1.9952   -2.3044    0.0000 C   0  0  0  0  0  0  0  0  0  0  0  0
    1.9952   -0.0000    0.0000 C   0  0  0  0  0  0  0  0  0  0  0  0
    0.6684   -2.3044    0.0000 C   0  0  0  0  0  0  0  0  0  0  0  0
    0.6684   -0.0000    0.0000 C   0  0  0  0  0  0  0  0  0  0  0  0
    0.0000   -1.1472    0.0000 C   0  0  0  0  0  0  0  0  0  0  0  0
  1  2  1  0  0  0  0 
  2  3  2  0  0  0  0 
  2  4  1  0  0  0  0 
  3  5  1  0  0  0  0 
  6  4  2  0  0  0  0 
  5  7  2  0  0  0  0 
  7  6  1  0  0  0  0 
  7  8  1  0  0  0  0 
  8  9  1  0  0  0  0 
  9 10  1  0  0  0  0 
 10 11  2  0  0  0  0 
 10 12  1  0  0  0  0 
 11 13  1  0  0  0  0 
 14 12  2  0  0  0  0 
 13 15  2  0  0  0  0 
 15 14  1  0  0  0  0 
M  END
> <Name>
Phenol, 4-(phenylmethoxy)-

> <Source>
DSSTox2DMolFile

> <Tox>
4.040

> <CAS>
103-16-2

$$$$

  CDK

 12 12  0  0  0  0  0  0  0  0999 V2000
   -2.4343    0.2172   -0.0016 C   0  0  0  0  0  0  0  0  0  0  0  0
   -1.0217   -0.2073   -0.0020 C   0  0  0  0  0  0  0  0  0  0  0  0
   -2.8867    1.3476   -0.0053 O   0  0  0  0  0  0  0  0  0  0  0  0
   -3.2990   -0.8455    0.0037 O   0  0  0  0  0  0  0  0  0  0  0  0
   -0.0168    0.6799    0.0006 C   0  0  0  0  0  0  0  0  0  0  0  0
   -4.6859   -0.5870    0.0029 C   0  0  0  0  0  0  0  0  0  0  0  0
    1.3854    0.2749    0.0004 C   0  0  0  0  0  0  0  0  0  0  0  0
    1.7473   -1.0762   -0.0021 C   0  0  0  0  0  0  0  0  0  0  0  0
    2.3853    1.2535    0.0028 C   0  0  0  0  0  0  0  0  0  0  0  0
    3.0865   -1.4435   -0.0023 C   0  0  0  0  0  0  0  0  0  0  0  0
    3.7238    0.8807    0.0026 C   0  0  0  0  0  0  0  0  0  0  0  0
    4.0763   -0.4655    0.0001 C   0  0  0  0  0  0  0  0  0  0  0  0
  1  2  1  0  0  0  0 
  1  3  2  0  0  0  0 
  1  4  1  0  0  0  0 
  2  5  2  0  0  0  0 
  4  6  1  0  0  0  0 
  5  7  1  0  0  0  0 
  7  8  1  0  0  0  0 
  7  9  2  0  0  0  0 
  8 10  2  0  0  0  0 
 11  9  1  0  0  0  0 
 10 12  1  0  0  0  0 
 12 11  2  0  0  0  0 
M  END
> <Name>
2-Propenoic acid, 3-phenyl-, methyl ester

> <Source>
DougDB3DMolFile

> <Tox>
3.580

> <CAS>
103-26-4

$$$$

  CDK

  9  9  0  0  0  0  0  0  0  0999 V2000
    1.2417    4.4521    1.5595 C   0  0  0  0  0  0  0  0  0  0  0  0
    1.6094    3.3467    0.7508 O   0  0  0  0  0  0  0  0  0  0  0  0
    0.8001    4.0316    2.9492 C   0  0  0  0  0  0  0  0  0  0  0  0
    2.8941    2.8589    0.9048 C   0  0  0  0  0  0  0  0  0  0  0  0
    3.9549    3.5996    1.4371 C   0  0  0  0  0  0  0  0  0  0  0  0
    3.0993    1.5593    0.4207 C   0  0  0  0  0  0  0  0  0  0  0  0
    5.2227    3.0327    1.4858 C   0  0  0  0  0  0  0  0  0  0  0  0
    4.3752    1.0140    0.4763 C   0  0  0  0  0  0  0  0  0  0  0  0
    5.4351    1.7443    1.0075 C   0  0  0  0  0  0  0  0  0  0  0  0
  1  2  1  0  0  0  0 
  1  3  1  0  0  0  0 
  2  4  1  0  0  0  0 
  4  5  2  0  0  0  0 
  6  4  1  0  0  0  0 
  5  7  1  0  0  0  0 
  8  6  2  0  0  0  0 
  7  9  2  0  0  0  0 
  9  8  1  0  0  0  0 
M  END
> <Name>
Benzene, ethoxy-

> <Source>
NIST3DMolFile

> <Tox>
2.860

> <CAS>
103-73-1

$$$$

  CDK

 10 10  0  0  0  0  0  0  0  0999 V2000
    0.0000   -2.6612    0.0000 N   0  0  0  0  0  0  0  0  0  0  0  0
    1.1520   -1.9988    0.0000 C   0  0  0  0  0  0  0  0  0  0  0  0
    1.1520   -0.6682    0.0000 S   0  0  0  0  0  0  0  0  0  0  0  0
    2.3041   -2.6612    0.0000 N   0  0  0  0  0  0  0  0  0  0  0  0
    3.4561   -1.9988    0.0000 C   0  0  0  0  0  0  0  0  0  0  0  0
    3.4561   -0.6682    0.0000 C   0  0  0  0  0  0  0  0  0  0  0  0
    4.6082   -2.6612    0.0000 C   0  0  0  0  0  0  0  0  0  0  0  0
    4.6082   -0.0000    0.0000 C   0  0  0  0  0  0  0  0  0  0  0  0
    5.7602   -1.9988    0.0000 C   0  0  0  0  0  0  0  0  0  0  0  0
    5.7602   -0.6682    0.0000 C   0  0  0  0  0  0  0  0  0  0  0  0
  1  2  1  0  0  0  0 
  2  3  2  0  0  0  0 
  2  4  1  0  0  0  0 
  4  5  1  0  0  0  0 
  5  6  2  0  0  0  0 
  5  7  1  0  0  0  0 
  6  8  1  0  0  0  0 
  9  7  2  0  0  0  0 
  8 10  2  0  0  0  0 
 10  9  1  0  0  0  0 
M  END
> <Name>
Urea, 1-phenyl-2-thio-

> <Source>
DSSTox2DMolFile

> <Tox>
3.610

> <CAS>
103-85-5

$$$$

  CDK

 11 11  0  0  0  0  0  0  0  0999 V2000
    8.0641   -0.0000    0.0000 N   0  0  0  0  0  0  0  0  0  0  0  0
    6.9109   -0.6693    0.0000 C   0  0  0  0  0  0  0  0  0  0  0  0
    6.9109   -1.9999    0.0000 C   0  0  0  0  0  0  0  0  0  0  0  0
    5.7578   -0.0000    0.0000 C   0  0  0  0  0  0  0  0  0  0  0  0
    5.7578   -2.6612    0.0000 C   0  0  0  0  0  0  0  0  0  0  0  0
    4.6046   -0.6693    0.0000 C   0  0  0  0  0  0  0  0  0  0  0  0
    4.6046   -1.9999    0.0000 C   0  0  0  0  0  0  0  0  0  0  0  0
    3.4595   -2.6612    0.0000 C   0  0  0  0  0  0  0  0  0  0  0  0
    2.3063   -1.9999    0.0000 C   0  0  0  0  0  0  0  0  0  0  0  0
    1.1532   -2.6612    0.0000 C   0  0  0  0  0  0  0  0  0  0  0  0
    0.0000   -1.9999    0.0000 C   0  0  0  0  0  0  0  0  0  0  0  0
  1  2  1  0  0  0  0 
  2  3  2  0  0  0  0 
  2  4  1  0  0  0  0 
  3  5  1  0  0  0  0 
  6  4  2  0  0  0  0 
  5  7  2  0  0  0  0 
  7  6  1  0  0  0  0 
  7  8  1  0  0  0  0 
  8  9  1  0  0  0  0 
  9 10  1  0  0  0  0 
 10 11  1  0  0  0  0 
M  END
> <Name>
Benzenamine, 4-butyl-

> <Source>
DSSTox2DMolFile

> <Tox>
4.070

> <CAS>
104-13-2

$$$$

  CDK

  9  9  0  0  0  0  0  0  0  0999 V2000
    0.0000    1.5899    0.0000 C   0  0  0  0  0  0  0  0  0  0  0  0
    0.6956    0.8446    0.0000 O   0  0  0  0  0  0  0  0  0  0  0  0
    1.6892    0.8446    0.0000 C   0  0  0  0  0  0  0  0  0  0  0  0
    2.1861    0.0000    0.0000 C   0  0  0  0  0  0  0  0  0  0  0  0
    2.1861    1.7389    0.0000 C   0  0  0  0  0  0  0  0  0  0  0  0
    3.1797    0.0000    0.0000 C   0  0  0  0  0  0  0  0  0  0  0  0
    3.1797    1.7389    0.0000 C   0  0  0  0  0  0  0  0  0  0  0  0
    3.6766    0.8446    0.0000 C   0  0  0  0  0  0  0  0  0  0  0  0
    4.6702    0.8446    0.0000 Br  0  0  0  0  0  0  0  0  0  0  0  0
  1  2  1  0  0  0  0 
  2  3  1  0  0  0  0 
  3  4  2  0  0  0  0 
  5  3  1  0  0  0  0 
  4  6  1  0  0  0  0 
  7  5  2  0  0  0  0 
  6  8  2  0  0  0  0 
  8  7  1  0  0  0  0 
  9  8  1  0  0  0  0 
M  END
> <Name>
1-bromo-4-methoxybenzene

> <Source>
NIST2DMolFile

> <Tox>
3.400

> <CAS>
104-92-7

$$$$

  CDK

  8  7  0  0  0  0  0  0  0  0999 V2000
   -0.0264    0.3284   -0.0002 C   0  0  0  0  0  0  0  0  0  0  0  0
    1.2066   -0.5452   -0.0003 C   0  0  0  0  0  0  0  0  0  0  0  0
   -0.1035    1.5411   -0.0004 O   0  0  0  0  0  0  0  0  0  0  0  0
   -1.1757   -0.4100    0.0002 O   0  0  0  0  0  0  0  0  0  0  0  0
    2.4951    0.2611    0.0008 C   0  0  0  0  0  0  0  0  0  0  0  0
   -2.4286    0.2763    0.0004 C   0  0  0  0  0  0  0  0  0  0  0  0
    3.7026   -0.6494   -0.0002 C   0  0  0  0  0  0  0  0  0  0  0  0
   -3.5046   -0.7925   -0.0001 C   0  0  0  0  0  0  0  0  0  0  0  0
  1  2  1  0  0  0  0 
  1  3  2  0  0  0  0 
  1  4  1  0  0  0  0 
  2  5  1  0  0  0  0 
  4  6  1  0  0  0  0 
  5  7  1  0  0  0  0 
  6  8  1  0  0  0  0 
M  END
> <Name>
Butanoic acid, ethyl ester

> <Source>
DougDB3DMolFile

> <Tox>
2.510

> <CAS>
105-54-4

$$$$

  CDK

  8  7  0  0  0  0  0  0  0  0999 V2000
    3.4577   -0.0000    0.0000 S   0  0  0  0  0  0  0  0  0  0  0  0
    3.4577   -1.3312    0.0000 C   0  0  0  0  0  0  0  0  0  0  0  0
    4.6103   -1.9939    0.0000 N   0  0  0  0  0  0  0  0  0  0  0  0
    2.3051   -1.9939    0.0000 N   0  0  0  0  0  0  0  0  0  0  0  0
    5.7628   -1.3312    0.0000 C   0  0  0  0  0  0  0  0  0  0  0  0
    1.1526   -1.3312    0.0000 C   0  0  0  0  0  0  0  0  0  0  0  0
    5.7628   -0.0000    0.0000 C   0  0  0  0  0  0  0  0  0  0  0  0
    0.0000   -1.9939    0.0000 C   0  0  0  0  0  0  0  0  0  0  0  0
  1  2  2  0  0  0  0 
  2  3  1  0  0  0  0 
  2  4  1  0  0  0  0 
  3  5  1  0  0  0  0 
  4  6  1  0  0  0  0 
  5  7  1  0  0  0  0 
  6  8  1  0  0  0  0 
M  END
> <Name>
Urea, 1,3-diethyl-2-thio-

> <Source>
DSSTox2DMolFile

> <Tox>
2.240

> <CAS>
105-55-5

$$$$

  CDK

  8  8  0  0  0  0  0  0  0  0999 V2000
    1.5079    1.7592    0.0000 C   0  0  0  0  0  0  0  0  0  0  0  0
    1.0053    0.8545    0.0000 C   0  0  0  0  0  0  0  0  0  0  0  0
    2.5132    1.7592    0.0000 C   0  0  0  0  0  0  0  0  0  0  0  0
    1.5079    0.0000    0.0000 C   0  0  0  0  0  0  0  0  0  0  0  0
    0.0000    0.8545    0.0000 Cl  0  0  0  0  0  0  0  0  0  0  0  0
    2.9655    0.8545    0.0000 C   0  0  0  0  0  0  0  0  0  0  0  0
    2.4629    0.0000    0.0000 C   0  0  0  0  0  0  0  0  0  0  0  0
    3.9708    0.8545    0.0000 Br  0  0  0  0  0  0  0  0  0  0  0  0
  1  2  2  0  0  0  0 
  3  1  1  0  0  0  0 
  2  4  1  0  0  0  0 
  2  5  1  0  0  0  0 
  6  3  2  0  0  0  0 
  4  7  2  0  0  0  0 
  7  6  1  0  0  0  0 
  6  8  1  0  0  0  0 
M  END
> <Name>
Benzene, 1-bromo-4-chloro-

> <Source>
NIST2DMolFile

> <Tox>
3.560

> <CAS>
106-39-8

$$$$

  CDK

  8  8  0  0  0  0  0  0  0  0999 V2000
    0.0000   -1.1545    0.0000 N   0  0  0  0  0  0  0  0  0  0  0  0
    1.3300   -1.1545    0.0000 C   0  0  0  0  0  0  0  0  0  0  0  0
    1.9950   -0.0000    0.0000 C   0  0  0  0  0  0  0  0  0  0  0  0
    1.9950   -2.3036    0.0000 C   0  0  0  0  0  0  0  0  0  0  0  0
    3.3250   -0.0000    0.0000 C   0  0  0  0  0  0  0  0  0  0  0  0
    3.3250   -2.3036    0.0000 C   0  0  0  0  0  0  0  0  0  0  0  0
    3.9900   -1.1545    0.0000 C   0  0  0  0  0  0  0  0  0  0  0  0
    5.3201   -1.1545    0.0000 Cl  0  0  0  0  0  0  0  0  0  0  0  0
  1  2  1  0  0  0  0 
  2  3  2  0  0  0  0 
  2  4  1  0  0  0  0 
  3  5  1  0  0  0  0 
  6  4  2  0  0  0  0 
  5  7  2  0  0  0  0 
  7  6  1  0  0  0  0 
  7  8  1  0  0  0  0 
M  END
> <Name>
Benzenamine, 4-chloro-

> <Source>
DSSTox2DMolFile

> <Tox>
3.050

> <CAS>
106-47-8

$$$$

  CDK

  8  8  0  0  0  0  0  0  0  0999 V2000
    0.0000   -1.1545    0.0000 O   0  0  0  0  0  0  0  0  0  0  0  0
    1.3300   -1.1545    0.0000 C   0  0  0  0  0  0  0  0  0  0  0  0
    1.9950   -0.0000    0.0000 C   0  0  0  0  0  0  0  0  0  0  0  0
    1.9950   -2.3036    0.0000 C   0  0  0  0  0  0  0  0  0  0  0  0
    3.3250   -0.0000    0.0000 C   0  0  0  0  0  0  0  0  0  0  0  0
    3.3250   -2.3036    0.0000 C   0  0  0  0  0  0  0  0  0  0  0  0
    3.9900   -1.1545    0.0000 C   0  0  0  0  0  0  0  0  0  0  0  0
    5.3201   -1.1545    0.0000 Cl  0  0  0  0  0  0  0  0  0  0  0  0
  1  2  1  0  0  0  0 
  2  3  2  0  0  0  0 
  2  4  1  0  0  0  0 
  3  5  1  0  0  0  0 
  6  4  2  0  0  0  0 
  5  7  2  0  0  0  0 
  7  6  1  0  0  0  0 
  7  8  1  0  0  0  0 
M  END
> <Name>
Phenol, 4-chloro-

> <Source>
DSSTox2DMolFile

> <Tox>
3.540

> <CAS>
106-48-9

$$$$

  CDK

  4  3  0  0  0  0  0  0  0  0999 V2000
    0.0000   -0.0000    0.0000 C   0  0  0  0  0  0  0  0  0  0  0  0
    1.1513   -0.6638    0.0000 C   0  0  0  0  0  0  0  0  0  0  0  0
    2.3061   -0.0000    0.0000 C   0  0  0  0  0  0  0  0  0  0  0  0
    3.4575   -0.6638    0.0000 N   0  0  0  0  0  0  0  0  0  0  0  0
  1  2  1  0  0  0  0 
  2  3  1  0  0  0  0 
  3  4  1  0  0  0  0 
M  END
> <Name>
1-Propanamine

> <Source>
DSSTox2DMolFile

> <Tox>
2.293

> <CAS>
107-10-8

$$$$

  CDK

  9  8  0  0  0  0  0  0  0  0999 V2000
    2.4435   -1.5899   -2.3325 O   0  0  0  0  0  0  0  0  0  0  0  0
    3.7592   -1.2036   -2.7241 C   0  0  0  0  0  0  0  0  0  0  0  0
    3.7053    0.0685   -3.6009 C   0  0  0  0  0  0  0  0  0  0  0  0
    4.5429   -0.9107   -1.4378 C   0  0  0  0  0  0  0  0  0  0  0  0
    4.3953   -2.3271   -3.4354 C   0  0  0  0  0  0  0  0  0  0  0  0
    2.8768   -0.0023   -4.9073 C   0  0  0  0  0  0  0  0  0  0  0  0
    4.9174   -3.2406   -4.0143 C   0  0  0  0  0  0  0  0  0  0  0  0
    1.4342   -0.3982   -4.5695 C   0  0  0  0  0  0  0  0  0  0  0  0
    2.8693    1.3033   -5.7018 C   0  0  0  0  0  0  0  0  0  0  0  0
  1  2  1  0  0  0  0 
  3  2  1  0  0  0  0 
  2  4  1  0  0  0  0 
  2  5  1  0  0  0  0 
  6  3  1  0  0  0  0 
  5  7  3  0  0  0  0 
  6  8  1  0  0  0  0 
  6  9  1  0  0  0  0 
M  END
> <Name>
1-Hexyn-3-ol, 3,5-dimethyl-

> <Source>
Chemidplus3DMolFile

> <Tox>
2.447

> <CAS>
107-54-0

$$$$

  CDK

  6  5  0  0  0  0  0  0  0  0999 V2000
    1.7391    1.4906    0.0000 C   0  0  0  0  0  0  0  0  0  0  0  0
    0.8944    0.9938    0.0000 C   0  0  0  0  0  0  0  0  0  0  0  0
    2.5838    0.9938    0.0000 C   0  0  0  0  0  0  0  0  0  0  0  0
    0.8944    0.0000    0.0000 Br  0  0  0  0  0  0  0  0  0  0  0  0
    0.0000    1.4906    0.0000 C   0  0  0  0  0  0  0  0  0  0  0  0
    3.4781    1.4906    0.0000 C   0  0  0  0  0  0  0  0  0  0  0  0
  1  2  1  0  0  0  0 
  1  3  1  0  0  0  0 
  2  4  1  0  0  0  0 
  2  5  1  0  0  0  0 
  3  6  1  0  0  0  0 
M  END
> <Name>
2-bromopentane

> <Source>
NIST2DMolFile

> <Tox>
3.210

> <CAS>
107-81-3

$$$$

  CDK

  8  8  0  0  0  0  0  0  0  0999 V2000
    0.0000   -2.6588    0.0000 Cl  0  0  0  0  0  0  0  0  0  0  0  0
    1.1520   -1.9953    0.0000 C   0  0  0  0  0  0  0  0  0  0  0  0
    1.1520   -0.6635    0.0000 C   0  0  0  0  0  0  0  0  0  0  0  0
    2.3040   -2.6588    0.0000 C   0  0  0  0  0  0  0  0  0  0  0  0
    2.3040   -0.0000    0.0000 C   0  0  0  0  0  0  0  0  0  0  0  0
    3.4560   -1.9953    0.0000 C   0  0  0  0  0  0  0  0  0  0  0  0
    3.4560   -0.6635    0.0000 C   0  0  0  0  0  0  0  0  0  0  0  0
    4.6080   -2.6588    0.0000 N   0  0  0  0  0  0  0  0  0  0  0  0
  1  2  1  0  0  0  0 
  2  3  2  0  0  0  0 
  2  4  1  0  0  0  0 
  3  5  1  0  0  0  0 
  6  4  2  0  0  0  0 
  5  7  2  0  0  0  0 
  7  6  1  0  0  0  0 
  6  8  1  0  0  0  0 
M  END
> <Name>
Benzenamine, 3-chloro-

> <Source>
DSSTox2DMolFile

> <Tox>
3.220

> <CAS>
108-42-9

$$$$

  CDK

  9  9  0  0  0  0  0  0  0  0999 V2000
    0.0000   -2.3037    0.0000 C   0  0  0  0  0  0  0  0  0  0  0  0
    1.3315   -2.3037    0.0000 C   0  0  0  0  0  0  0  0  0  0  0  0
    1.9950   -1.1518    0.0000 C   0  0  0  0  0  0  0  0  0  0  0  0
    1.9950   -3.4555    0.0000 C   0  0  0  0  0  0  0  0  0  0  0  0
    3.3265   -1.1518    0.0000 C   0  0  0  0  0  0  0  0  0  0  0  0
    3.3265   -3.4555    0.0000 C   0  0  0  0  0  0  0  0  0  0  0  0
    3.9899   -0.0000    0.0000 C   0  0  0  0  0  0  0  0  0  0  0  0
    3.9899   -2.3037    0.0000 C   0  0  0  0  0  0  0  0  0  0  0  0
    3.9899   -4.6073    0.0000 O   0  0  0  0  0  0  0  0  0  0  0  0
  1  2  1  0  0  0  0 
  2  3  2  0  0  0  0 
  2  4  1  0  0  0  0 
  3  5  1  0  0  0  0 
  6  4  2  0  0  0  0 
  5  7  1  0  0  0  0 
  5  8  2  0  0  0  0 
  8  6  1  0  0  0  0 
  6  9  1  0  0  0  0 
M  END
> <Name>
Phenol, 3,5-dimethyl-

> <Source>
DSSTox2DMolFile

> <Tox>
3.110

> <CAS>
108-68-9

$$$$

  CDK

  7  7  0  0  0  0  0  0  0  0999 V2000
    1.3292   -1.1496    0.0000 C   0  0  0  0  0  0  0  0  0  0  0  0
    1.9958   -0.0000    0.0000 C   0  0  0  0  0  0  0  0  0  0  0  0
    1.9958   -2.3032    0.0000 C   0  0  0  0  0  0  0  0  0  0  0  0
    0.0000   -1.1496    0.0000 Br  0  0  0  0  0  0  0  0  0  0  0  0
    3.3250   -0.0000    0.0000 C   0  0  0  0  0  0  0  0  0  0  0  0
    3.3250   -2.3032    0.0000 C   0  0  0  0  0  0  0  0  0  0  0  0
    3.9916   -1.1496    0.0000 C   0  0  0  0  0  0  0  0  0  0  0  0
  1  2  2  0  0  0  0 
  1  3  1  0  0  0  0 
  1  4  1  0  0  0  0 
  2  5  1  0  0  0  0 
  6  3  2  0  0  0  0 
  5  7  2  0  0  0  0 
  7  6  1  0  0  0  0 
M  END
> <Name>
Benzene, bromo-

> <Source>
DSSTox2DMolFile

> <Tox>
3.080

> <CAS>
108-86-1

$$$$

  CDK

  7  7  0  0  0  0  0  0  0  0999 V2000
    3.3250   -2.3032    0.0000 N   0  0  0  0  0  0  0  0  0  0  0  0
    1.9958   -2.3032    0.0000 C   0  0  0  0  0  0  0  0  0  0  0  0
    3.9916   -1.1496    0.0000 C   0  0  0  0  0  0  0  0  0  0  0  0
    1.3292   -1.1496    0.0000 C   0  0  0  0  0  0  0  0  0  0  0  0
    3.3250   -0.0000    0.0000 C   0  0  0  0  0  0  0  0  0  0  0  0
    0.0000   -1.1496    0.0000 C   0  0  0  0  0  0  0  0  0  0  0  0
    1.9958   -0.0000    0.0000 C   0  0  0  0  0  0  0  0  0  0  0  0
  1  2  2  0  0  0  0 
  1  3  1  0  0  0  0 
  2  4  1  0  0  0  0 
  5  3  2  0  0  0  0 
  4  6  1  0  0  0  0 
  4  7  2  0  0  0  0 
  7  5  1  0  0  0  0 
M  END
> <Name>
Pyridine, 3-methyl-

> <Source>
DSSTox2DMolFile

> <Tox>
2.010

> <CAS>
108-99-6

$$$$

  CDK

  5  4  0  0  0  0  0  0  0  0999 V2000
    0.0000   -0.6638    0.0000 Br  0  0  0  0  0  0  0  0  0  0  0  0
    1.1525   -0.0000    0.0000 C   0  0  0  0  0  0  0  0  0  0  0  0
    2.3050   -0.6638    0.0000 C   0  0  0  0  0  0  0  0  0  0  0  0
    3.4575   -0.0000    0.0000 C   0  0  0  0  0  0  0  0  0  0  0  0
    4.6099   -0.6638    0.0000 C   0  0  0  0  0  0  0  0  0  0  0  0
  1  2  1  0  0  0  0 
  2  3  1  0  0  0  0 
  3  4  1  0  0  0  0 
  4  5  1  0  0  0  0 
M  END
> <Name>
Butane, 1-bromo-

> <Source>
DSSTox2DMolFile

> <Tox>
2.820

> <CAS>
109-65-9

$$$$

  CDK

  5  4  0  0  0  0  0  0  0  0999 V2000
    1.1525   -0.0000    0.0000 C   0  0  0  0  0  0  0  0  0  0  0  0
    2.3050   -0.6638    0.0000 C   0  0  0  0  0  0  0  0  0  0  0  0
    0.0000   -0.6638    0.0000 C   0  0  0  0  0  0  0  0  0  0  0  0
    3.4575   -0.0000    0.0000 C   0  0  0  0  0  0  0  0  0  0  0  0
    4.6099   -0.6638    0.0000 C   0  0  0  0  0  0  0  0  0  0  0  0
  1  2  1  0  0  0  0 
  1  3  1  0  0  0  0 
  2  4  1  0  0  0  0 
  4  5  1  0  0  0  0 
M  END
> <Name>
Pentane

> <Source>
DSSTox2DMolFile

> <Tox>
2.800

> <CAS>
109-66-0

$$$$

  CDK

  5  4  0  0  0  0  0  0  0  0999 V2000
    0.0000   -0.6638    0.0000 C   0  0  0  0  0  0  0  0  0  0  0  0
    1.1525   -0.0000    0.0000 C   0  0  0  0  0  0  0  0  0  0  0  0
    2.3050   -0.6638    0.0000 C   0  0  0  0  0  0  0  0  0  0  0  0
    3.4575   -0.0000    0.0000 C   0  0  0  0  0  0  0  0  0  0  0  0
    4.6099   -0.6638    0.0000 N   0  0  0  0  0  0  0  0  0  0  0  0
  1  2  1  0  0  0  0 
  2  3  1  0  0  0  0 
  3  4  1  0  0  0  0 
  4  5  1  0  0  0  0 
M  END
> <Name>
1-Butanamine

> <Source>
DSSTox2DMolFile

> <Tox>
2.427

> <CAS>
109-73-9

$$$$

  CDK

  5  4  0  0  0  0  0  0  0  0999 V2000
    0.0000   -0.6638    0.0000 N   0  0  0  0  0  0  0  0  0  0  0  0
    1.1525   -0.0000    0.0000 C   0  0  0  0  0  0  0  0  0  0  0  0
    2.3050   -0.6638    0.0000 C   0  0  0  0  0  0  0  0  0  0  0  0
    3.4575   -0.0000    0.0000 C   0  0  0  0  0  0  0  0  0  0  0  0
    4.6099   -0.6638    0.0000 N   0  0  0  0  0  0  0  0  0  0  0  0
  1  2  1  0  0  0  0 
  2  3  1  0  0  0  0 
  3  4  1  0  0  0  0 
  4  5  1  0  0  0  0 
M  END
> <Name>
Trimethylenediamine

> <Source>
DSSTox2DMolFile

> <Tox>
2.296

> <CAS>
109-76-2

$$$$

  CDK

  5  5  0  0  0  0  0  0  0  0999 V2000
    1.7409   -0.0000    0.0000 N   0  0  0  0  0  0  0  0  0  0  0  0
    2.1519   -1.2653    0.0000 C   0  0  0  0  0  0  0  0  0  0  0  0
    0.4110   -0.0000    0.0000 C   0  0  0  0  0  0  0  0  0  0  0  0
    1.0760   -2.0465    0.0000 C   0  0  0  0  0  0  0  0  0  0  0  0
    0.0000   -1.2653    0.0000 C   0  0  0  0  0  0  0  0  0  0  0  0
  1  2  1  0  0  0  0 
  1  3  1  0  0  0  0 
  2  4  2  0  0  0  0 
  5  3  2  0  0  0  0 
  4  5  1  0  0  0  0 
M  END
> <Name>
1H-Pyrrole

> <Source>
DSSTox2DMolFile

> <Tox>
1.910

> <CAS>
109-97-7

$$$$

  CDK

  8  7  0  0  0  0  0  0  0  0999 V2000
    1.1508   -1.9966    0.0000 C   0  0  0  0  0  0  0  0  0  0  0  0
    1.1508   -3.3258    0.0000 O   0  0  0  0  0  0  0  0  0  0  0  0
    2.3016   -1.3292    0.0000 O   0  0  0  0  0  0  0  0  0  0  0  0
    0.0000   -1.3292    0.0000 C   0  0  0  0  0  0  0  0  0  0  0  0
    3.4524   -1.9966    0.0000 C   0  0  0  0  0  0  0  0  0  0  0  0
    4.6031   -1.3292    0.0000 C   0  0  0  0  0  0  0  0  0  0  0  0
    4.6031   -0.0000    0.0000 C   0  0  0  0  0  0  0  0  0  0  0  0
    5.7539   -1.9966    0.0000 C   0  0  0  0  0  0  0  0  0  0  0  0
  1  2  2  0  0  0  0 
  1  3  1  0  0  0  0 
  1  4  1  0  0  0  0 
  3  5  1  0  0  0  0 
  5  6  1  0  0  0  0 
  6  7  1  0  0  0  0 
  6  8  1  0  0  0  0 
M  END
> <Name>
Acetic acid, 2-methylpropyl ester

> <Source>
DSSTox2DMolFile

> <Tox>
1.730

> <CAS>
110-19-0

$$$$

  CDK

  8  7  0  0  0  0  0  0  0  0999 V2000
    0.0000   -1.9974    0.0000 C   0  0  0  0  0  0  0  0  0  0  0  0
    1.1542   -1.3339    0.0000 C   0  0  0  0  0  0  0  0  0  0  0  0
    2.3015   -1.9974    0.0000 C   0  0  0  0  0  0  0  0  0  0  0  0
    3.4558   -1.3339    0.0000 C   0  0  0  0  0  0  0  0  0  0  0  0
    4.6100   -1.9974    0.0000 C   0  0  0  0  0  0  0  0  0  0  0  0
    5.7573   -1.3339    0.0000 C   0  0  0  0  0  0  0  0  0  0  0  0
    5.7573   -0.0000    0.0000 O   0  0  0  0  0  0  0  0  0  0  0  0
    6.9115   -1.9974    0.0000 C   0  0  0  0  0  0  0  0  0  0  0  0
  1  2  1  0  0  0  0 
  2  3  1  0  0  0  0 
  3  4  1  0  0  0  0 
  4  5  1  0  0  0  0 
  5  6  1  0  0  0  0 
  6  7  2  0  0  0  0 
  6  8  1  0  0  0  0 
M  END
> <Name>
2-Heptanone

> <Source>
DSSTox2DMolFile

> <Tox>
2.513

> <CAS>
110-43-0

$$$$

  CDK

  6  5  0  0  0  0  0  0  0  0999 V2000
    0.0000   -0.6630    0.0000 C   0  0  0  0  0  0  0  0  0  0  0  0
    1.1530   -0.0000    0.0000 C   0  0  0  0  0  0  0  0  0  0  0  0
    2.3060   -0.6630    0.0000 N   0  0  0  0  0  0  0  0  0  0  0  0
    3.4590   -0.0000    0.0000 C   0  0  0  0  0  0  0  0  0  0  0  0
    4.6119   -0.6630    0.0000 C   0  0  0  0  0  0  0  0  0  0  0  0
    5.7649   -0.0000    0.0000 O   0  0  0  0  0  0  0  0  0  0  0  0
  1  2  1  0  0  0  0 
  2  3  1  0  0  0  0 
  3  4  1  0  0  0  0 
  4  5  1  0  0  0  0 
  5  6  1  0  0  0  0 
M  END
> <Name>
Ethanol, 2-(ethylamino)-

> <Source>
DSSTox2DMolFile

> <Tox>
1.351

> <CAS>
110-73-6

$$$$

  CDK

  6  6  0  0  0  0  0  0  0  0999 V2000
   -0.6639   -1.2720   -0.0473 C   0  0  0  0  0  0  0  0  0  0  0  0
    0.6667   -1.2707    0.0476 C   0  0  0  0  0  0  0  0  0  0  0  0
   -1.4763   -0.0287   -0.1165 C   0  0  0  0  0  0  0  0  0  0  0  0
    1.4765   -0.0255    0.1159 C   0  0  0  0  0  0  0  0  0  0  0  0
   -0.6952    1.2053    0.3094 C   0  0  0  0  0  0  0  0  0  0  0  0
    0.6923    1.2070   -0.3090 C   0  0  0  0  0  0  0  0  0  0  0  0
  1  2  2  0  0  0  0 
  1  3  1  0  0  0  0 
  2  4  1  0  0  0  0 
  5  3  1  0  0  0  0 
  4  6  1  0  0  0  0 
  6  5  1  0  0  0  0 
M  END
> <Name>
Cyclohexene

> <Source>
DougDB3DMolFile

> <Tox>
2.990

> <CAS>
110-83-8

$$$$

  CDK

 14 13  0  0  0  0  0  0  0  0999 V2000
    1.1505   -1.3275    0.0000 C   0  0  0  0  0  0  0  0  0  0  0  0
    2.2884   -1.9976    0.0000 C   0  0  0  0  0  0  0  0  0  0  0  0
    0.0000   -1.9976    0.0000 O   0  0  0  0  0  0  0  0  0  0  0  0
    1.1505   -0.0000    0.0000 O   0  0  0  0  0  0  0  0  0  0  0  0
    3.4389   -1.3275    0.0000 C   0  0  0  0  0  0  0  0  0  0  0  0
    4.5895   -1.9976    0.0000 C   0  0  0  0  0  0  0  0  0  0  0  0
    5.7400   -1.3275    0.0000 C   0  0  0  0  0  0  0  0  0  0  0  0
    6.9032   -1.9976    0.0000 C   0  0  0  0  0  0  0  0  0  0  0  0
    8.0537   -1.3275    0.0000 C   0  0  0  0  0  0  0  0  0  0  0  0
    9.2042   -1.9976    0.0000 C   0  0  0  0  0  0  0  0  0  0  0  0
   10.3547   -1.3275    0.0000 C   0  0  0  0  0  0  0  0  0  0  0  0
   11.4926   -1.9976    0.0000 C   0  0  0  0  0  0  0  0  0  0  0  0
   12.6431   -1.3275    0.0000 O   0  0  0  0  0  0  0  0  0  0  0  0
   11.4926   -3.3251    0.0000 O   0  0  0  0  0  0  0  0  0  0  0  0
  1  2  1  0  0  0  0 
  1  3  1  0  0  0  0 
  1  4  2  0  0  0  0 
  2  5  1  0  0  0  0 
  5  6  1  0  0  0  0 
  6  7  1  0  0  0  0 
  7  8  1  0  0  0  0 
  8  9  1  0  0  0  0 
  9 10  1  0  0  0  0 
 10 11  1  0  0  0  0 
 11 12  1  0  0  0  0 
 12 13  1  0  0  0  0 
 12 14  2  0  0  0  0 
M  END
> <Name>
Decanedioic acid

> <Source>
DSSTox2DMolFile

> <Tox>
2.732

> <CAS>
111-20-6

$$$$

  CDK

  7  6  0  0  0  0  0  0  0  0999 V2000
    0.0000   -0.6638    0.0000 C   0  0  0  0  0  0  0  0  0  0  0  0
    1.1548   -0.0000    0.0000 C   0  0  0  0  0  0  0  0  0  0  0  0
    2.3027   -0.6638    0.0000 C   0  0  0  0  0  0  0  0  0  0  0  0
    3.4575   -0.0000    0.0000 S   0  0  0  0  0  0  0  0  0  0  0  0
    4.6122   -0.6638    0.0000 C   0  0  0  0  0  0  0  0  0  0  0  0
    5.7601   -0.0000    0.0000 C   0  0  0  0  0  0  0  0  0  0  0  0
    6.9149   -0.6638    0.0000 C   0  0  0  0  0  0  0  0  0  0  0  0
  1  2  1  0  0  0  0 
  2  3  1  0  0  0  0 
  3  4  1  0  0  0  0 
  4  5  1  0  0  0  0 
  5  6  1  0  0  0  0 
  6  7  1  0  0  0  0 
M  END
> <Name>
Propyl sulfide (8CI)

> <Source>
DSSTox2DMolFile

> <Tox>
2.997

> <CAS>
111-47-7

$$$$

  CDK

 10  9  0  0  0  0  0  0  0  0999 V2000
    8.0667   -0.0000    0.0000 O   0  0  0  0  0  0  0  0  0  0  0  0
    6.9132   -0.6695    0.0000 C   0  0  0  0  0  0  0  0  0  0  0  0
    6.9132   -2.0006    0.0000 C   0  0  0  0  0  0  0  0  0  0  0  0
    5.7596   -0.0000    0.0000 Cl  0  0  0  0  0  0  0  0  0  0  0  0
    5.7596   -2.6620    0.0000 C   0  0  0  0  0  0  0  0  0  0  0  0
    4.6061   -2.0006    0.0000 C   0  0  0  0  0  0  0  0  0  0  0  0
    3.4606   -2.6620    0.0000 C   0  0  0  0  0  0  0  0  0  0  0  0
    2.3071   -2.0006    0.0000 C   0  0  0  0  0  0  0  0  0  0  0  0
    1.1535   -2.6620    0.0000 C   0  0  0  0  0  0  0  0  0  0  0  0
    0.0000   -2.0006    0.0000 C   0  0  0  0  0  0  0  0  0  0  0  0
  1  2  2  0  0  0  0 
  2  3  1  0  0  0  0 
  2  4  1  0  0  0  0 
  3  5  1  0  0  0  0 
  5  6  1  0  0  0  0 
  6  7  1  0  0  0  0 
  7  8  1  0  0  0  0 
  8  9  1  0  0  0  0 
  9 10  1  0  0  0  0 
M  END
> <Name>
Octanoyl chloride

> <Source>
DSSTox2DMolFile

> <Tox>
3.415

> <CAS>
111-64-8

$$$$

  CDK

  8  7  0  0  0  0  0  0  0  0999 V2000
    0.0000   -0.0000    0.0000 O   0  0  0  0  0  0  0  0  0  0  0  0
    1.1546   -0.6621    0.0000 C   0  0  0  0  0  0  0  0  0  0  0  0
    2.3092   -0.0000    0.0000 C   0  0  0  0  0  0  0  0  0  0  0  0
    3.4639   -0.6621    0.0000 O   0  0  0  0  0  0  0  0  0  0  0  0
    4.5943   -0.0000    0.0000 C   0  0  0  0  0  0  0  0  0  0  0  0
    5.7650   -0.6621    0.0000 C   0  0  0  0  0  0  0  0  0  0  0  0
    6.9035   -0.0000    0.0000 C   0  0  0  0  0  0  0  0  0  0  0  0
    8.0743   -0.6621    0.0000 C   0  0  0  0  0  0  0  0  0  0  0  0
  1  2  1  0  0  0  0 
  2  3  1  0  0  0  0 
  4  3  1  0  0  0  0 
  4  5  1  0  0  0  0 
  5  6  1  0  0  0  0 
  6  7  1  0  0  0  0 
  7  8  1  0  0  0  0 
M  END
> <Name>
Ethanol, 2-butoxy-

> <Source>
DSSTox2DMolFile

> <Tox>
1.626

> <CAS>
111-76-2

$$$$

  CDK

 12 11  0  0  0  0  0  0  0  0999 V2000
   -4.2216   -0.5724    0.7290 O   0  0  0  0  0  0  0  0  0  0  0  0
   -3.3674   -0.0510   -0.1925 C   0  0  0  0  0  0  0  0  0  0  0  0
   -5.5298   -0.8914    0.2434 C   0  0  0  0  0  0  0  0  0  0  0  0
   -3.6024    0.1675   -1.3704 O   0  0  0  0  0  0  0  0  0  0  0  0
   -2.0816    0.2132    0.4883 C   0  0  0  0  0  0  0  0  0  0  0  0
   -1.0567    0.7359   -0.1979 C   0  0  0  0  0  0  0  0  0  0  0  0
    0.2824    1.0303    0.4156 C   0  0  0  0  0  0  0  0  0  0  0  0
    1.3877    0.2017   -0.2425 C   0  0  0  0  0  0  0  0  0  0  0  0
    2.7578    0.5252    0.3589 C   0  0  0  0  0  0  0  0  0  0  0  0
    3.8565   -0.3315   -0.2742 C   0  0  0  0  0  0  0  0  0  0  0  0
    5.2458   -0.0645    0.3090 C   0  0  0  0  0  0  0  0  0  0  0  0
    6.3293   -0.9630   -0.2667 C   0  0  0  0  0  0  0  0  0  0  0  0
  1  2  1  0  0  0  0 
  1  3  1  0  0  0  0 
  4  2  2  0  0  0  0 
  5  2  1  0  0  0  0 
  6  5  2  0  0  0  0 
  7  6  1  0  0  0  0 
  8  7  1  0  0  0  0 
  9  8  1  0  0  0  0 
  9 10  1  0  0  0  0 
 10 11  1  0  0  0  0 
 11 12  1  0  0  0  0 
M  END
> <Name>
methyl (E)-non-2-enoate

> <Source>
Chemidplus3DMolFile

> <Tox>
4.040

> <CAS>
111-79-5

$$$$

  CDK

 11 10  0  0  0  0  0  0  0  0999 V2000
    0.0000   -0.6673    0.0000 C   0  0  0  0  0  0  0  0  0  0  0  0
    1.1505   -0.0000    0.0000 C   0  0  0  0  0  0  0  0  0  0  0  0
    2.3010   -0.6673    0.0000 C   0  0  0  0  0  0  0  0  0  0  0  0
    3.4515   -0.0000    0.0000 C   0  0  0  0  0  0  0  0  0  0  0  0
    4.6020   -0.6673    0.0000 C   0  0  0  0  0  0  0  0  0  0  0  0
    5.7525   -0.0000    0.0000 C   0  0  0  0  0  0  0  0  0  0  0  0
    6.9029   -0.6673    0.0000 C   0  0  0  0  0  0  0  0  0  0  0  0
    8.0534   -0.0000    0.0000 C   0  0  0  0  0  0  0  0  0  0  0  0
    9.2039   -0.6673    0.0000 C   0  0  0  0  0  0  0  0  0  0  0  0
   10.3544   -0.0000    0.0000 C   0  0  0  0  0  0  0  0  0  0  0  0
   11.5049   -0.6673    0.0000 O   0  0  0  0  0  0  0  0  0  0  0  0
  1  2  1  0  0  0  0 
  2  3  1  0  0  0  0 
  3  4  1  0  0  0  0 
  4  5  1  0  0  0  0 
  5  6  1  0  0  0  0 
  6  7  1  0  0  0  0 
  7  8  1  0  0  0  0 
  8  9  1  0  0  0  0 
  9 10  1  0  0  0  0 
 10 11  2  0  0  0  0 
M  END
> <Name>
1-Decanal

> <Source>
DSSTox2DMolFile

> <Tox>
4.282

> <CAS>
112-31-2

$$$$

  CDK

 13 12  0  0  0  0  0  0  0  0999 V2000
    9.2079   -0.0000    0.0000 O   0  0  0  0  0  0  0  0  0  0  0  0
   10.3589   -0.6676    0.0000 C   0  0  0  0  0  0  0  0  0  0  0  0
   11.5099   -0.0000    0.0000 O   0  0  0  0  0  0  0  0  0  0  0  0
   10.3589   -1.9912    0.0000 C   0  0  0  0  0  0  0  0  0  0  0  0
    9.2079   -2.6588    0.0000 C   0  0  0  0  0  0  0  0  0  0  0  0
    8.0569   -1.9912    0.0000 C   0  0  0  0  0  0  0  0  0  0  0  0
    6.9059   -2.6588    0.0000 C   0  0  0  0  0  0  0  0  0  0  0  0
    5.7550   -1.9912    0.0000 C   0  0  0  0  0  0  0  0  0  0  0  0
    4.6040   -2.6588    0.0000 C   0  0  0  0  0  0  0  0  0  0  0  0
    3.4530   -1.9912    0.0000 C   0  0  0  0  0  0  0  0  0  0  0  0
    2.3020   -2.6588    0.0000 C   0  0  0  0  0  0  0  0  0  0  0  0
    1.1510   -1.9912    0.0000 C   0  0  0  0  0  0  0  0  0  0  0  0
    0.0000   -2.6588    0.0000 C   0  0  0  0  0  0  0  0  0  0  0  0
  1  2  2  0  0  0  0 
  2  3  1  0  0  0  0 
  2  4  1  0  0  0  0 
  4  5  1  0  0  0  0 
  5  6  1  0  0  0  0 
  6  7  1  0  0  0  0 
  7  8  1  0  0  0  0 
  8  9  1  0  0  0  0 
  9 10  1  0  0  0  0 
 10 11  1  0  0  0  0 
 11 12  1  0  0  0  0 
 12 13  1  0  0  0  0 
M  END
> <Name>
Undecanoic acid

> <Source>
DSSTox2DMolFile

> <Tox>
3.898

> <CAS>
112-37-8

$$$$

  CDK

 13 12  0  0  0  0  0  0  0  0999 V2000
    1.1737   -0.0000    0.0000 C   0  0  0  0  0  0  0  0  0  0  0  0
    2.3334   -0.6427    0.0000 C   0  0  0  0  0  0  0  0  0  0  0  0
    0.0000   -0.6427    0.0000 O   0  0  0  0  0  0  0  0  0  0  0  0
    3.5071   -0.0000    0.0000 C   0  0  0  0  0  0  0  0  0  0  0  0
    4.6528   -0.6427    0.0000 C   0  0  0  0  0  0  0  0  0  0  0  0
    5.8265   -0.0000    0.0000 C   0  0  0  0  0  0  0  0  0  0  0  0
    6.9862   -0.6427    0.0000 C   0  0  0  0  0  0  0  0  0  0  0  0
    8.1460   -0.0000    0.0000 C   0  0  0  0  0  0  0  0  0  0  0  0
    9.3197   -0.6427    0.0000 C   0  0  0  0  0  0  0  0  0  0  0  0
   10.4654   -0.0000    0.0000 C   0  0  0  0  0  0  0  0  0  0  0  0
   11.6391   -0.6427    0.0000 C   0  0  0  0  0  0  0  0  0  0  0  0
   12.7988   -0.0000    0.0000 C   0  0  0  0  0  0  0  0  0  0  0  0
   13.9725   -0.6427    0.0000 C   0  0  0  0  0  0  0  0  0  0  0  0
  1  2  1  0  0  0  0 
  1  3  1  0  0  0  0 
  2  4  1  0  0  0  0 
  4  5  1  0  0  0  0 
  5  6  1  0  0  0  0 
  6  7  1  0  0  0  0 
  7  8  1  0  0  0  0 
  8  9  1  0  0  0  0 
  9 10  1  0  0  0  0 
 10 11  1  0  0  0  0 
 11 12  1  0  0  0  0 
 12 13  1  0  0  0  0 
M  END
> <Name>
Dodecyl alcohol

> <Source>
DSSTox2DMolFile

> <Tox>
5.161

> <CAS>
112-53-8

$$$$

  CDK

 13 12  0  0  0  0  0  0  0  0999 V2000
    0.0000   -0.6638    0.0000 C   0  0  0  0  0  0  0  0  0  0  0  0
    1.1479   -0.0000    0.0000 C   0  0  0  0  0  0  0  0  0  0  0  0
    2.3096   -0.6638    0.0000 C   0  0  0  0  0  0  0  0  0  0  0  0
    3.4575   -0.0000    0.0000 C   0  0  0  0  0  0  0  0  0  0  0  0
    4.6053   -0.6638    0.0000 C   0  0  0  0  0  0  0  0  0  0  0  0
    5.7670   -0.0000    0.0000 C   0  0  0  0  0  0  0  0  0  0  0  0
    6.9149   -0.6638    0.0000 C   0  0  0  0  0  0  0  0  0  0  0  0
    8.0628   -0.0000    0.0000 C   0  0  0  0  0  0  0  0  0  0  0  0
    9.2245   -0.6638    0.0000 C   0  0  0  0  0  0  0  0  0  0  0  0
   10.3724   -0.0000    0.0000 C   0  0  0  0  0  0  0  0  0  0  0  0
   11.5202   -0.6638    0.0000 C   0  0  0  0  0  0  0  0  0  0  0  0
   12.6819   -0.0000    0.0000 C   0  0  0  0  0  0  0  0  0  0  0  0
   13.8298   -0.6638    0.0000 O   0  0  0  0  0  0  0  0  0  0  0  0
  1  2  1  0  0  0  0 
  2  3  1  0  0  0  0 
  3  4  1  0  0  0  0 
  4  5  1  0  0  0  0 
  5  6  1  0  0  0  0 
  6  7  1  0  0  0  0 
  7  8  1  0  0  0  0 
  8  9  1  0  0  0  0 
  9 10  1  0  0  0  0 
 10 11  1  0  0  0  0 
 11 12  1  0  0  0  0 
 12 13  2  0  0  0  0 
M  END
> <Name>
Lauraldehyde (8CI)

> <Source>
DSSTox2DMolFile

> <Tox>
4.760

> <CAS>
112-54-9

$$$$

  CDK

 14 13  0  0  0  0  0  0  0  0999 V2000
    0.0000   -0.6604    0.0000 C   0  0  0  0  0  0  0  0  0  0  0  0
    1.1556   -0.0000    0.0000 C   0  0  0  0  0  0  0  0  0  0  0  0
    2.3113   -0.6604    0.0000 C   0  0  0  0  0  0  0  0  0  0  0  0
    3.4669   -0.0000    0.0000 C   0  0  0  0  0  0  0  0  0  0  0  0
    4.6225   -0.6604    0.0000 C   0  0  0  0  0  0  0  0  0  0  0  0
    5.7782   -0.0000    0.0000 C   0  0  0  0  0  0  0  0  0  0  0  0
    6.9338   -0.6604    0.0000 C   0  0  0  0  0  0  0  0  0  0  0  0
    8.0744   -0.0000    0.0000 C   0  0  0  0  0  0  0  0  0  0  0  0
    9.2301   -0.6604    0.0000 C   0  0  0  0  0  0  0  0  0  0  0  0
   10.3857   -0.0000    0.0000 C   0  0  0  0  0  0  0  0  0  0  0  0
   11.5413   -0.6604    0.0000 C   0  0  0  0  0  0  0  0  0  0  0  0
   12.6969   -0.0000    0.0000 C   0  0  0  0  0  0  0  0  0  0  0  0
   13.8526   -0.6604    0.0000 C   0  0  0  0  0  0  0  0  0  0  0  0
   15.0082   -0.0000    0.0000 O   0  0  0  0  0  0  0  0  0  0  0  0
  1  2  1  0  0  0  0 
  2  3  1  0  0  0  0 
  3  4  1  0  0  0  0 
  4  5  1  0  0  0  0 
  5  6  1  0  0  0  0 
  6  7  1  0  0  0  0 
  7  8  1  0  0  0  0 
  8  9  1  0  0  0  0 
  9 10  1  0  0  0  0 
 10 11  1  0  0  0  0 
 11 12  1  0  0  0  0 
 12 13  1  0  0  0  0 
 13 14  1  0  0  0  0 
M  END
> <Name>
1-Tridecanol

> <Source>
DSSTox2DMolFile

> <Tox>
5.450

> <CAS>
112-70-9

$$$$

  CDK

 15 14  0  0  0  0  0  0  0  0999 V2000
    1.1949   -0.0000    0.0000 C   0  0  0  0  0  0  0  0  0  0  0  0
    2.3253   -0.6621    0.0000 C   0  0  0  0  0  0  0  0  0  0  0  0
    0.0000   -0.6621    0.0000 O   0  0  0  0  0  0  0  0  0  0  0  0
    3.5041   -0.0000    0.0000 C   0  0  0  0  0  0  0  0  0  0  0  0
    4.6183   -0.6621    0.0000 C   0  0  0  0  0  0  0  0  0  0  0  0
    5.8132   -0.0000    0.0000 C   0  0  0  0  0  0  0  0  0  0  0  0
    6.9435   -0.6621    0.0000 C   0  0  0  0  0  0  0  0  0  0  0  0
    8.0739   -0.0000    0.0000 C   0  0  0  0  0  0  0  0  0  0  0  0
    9.2527   -0.6621    0.0000 C   0  0  0  0  0  0  0  0  0  0  0  0
   10.3991   -0.0000    0.0000 C   0  0  0  0  0  0  0  0  0  0  0  0
   11.5779   -0.6621    0.0000 C   0  0  0  0  0  0  0  0  0  0  0  0
   12.6921   -0.0000    0.0000 C   0  0  0  0  0  0  0  0  0  0  0  0
   13.8870   -0.6621    0.0000 C   0  0  0  0  0  0  0  0  0  0  0  0
   15.0174   -0.0000    0.0000 C   0  0  0  0  0  0  0  0  0  0  0  0
   16.1477   -0.6621    0.0000 C   0  0  0  0  0  0  0  0  0  0  0  0
  1  2  1  0  0  0  0 
  1  3  1  0  0  0  0 
  2  4  1  0  0  0  0 
  4  5  1  0  0  0  0 
  5  6  1  0  0  0  0 
  6  7  1  0  0  0  0 
  7  8  1  0  0  0  0 
  8  9  1  0  0  0  0 
  9 10  1  0  0  0  0 
 10 11  1  0  0  0  0 
 11 12  1  0  0  0  0 
 12 13  1  0  0  0  0 
 13 14  1  0  0  0  0 
 14 15  1  0  0  0  0 
M  END
> <Name>
1-Tetradecanol

> <Source>
DSSTox2DMolFile

> <Tox>
4.670

> <CAS>
112-72-1

$$$$

  CDK

 11 11  0  0  0  0  0  0  0  0999 V2000
    1.9968   -4.6079    0.0000 O   0  0  0  0  0  0  0  0  0  0  0  0
    2.6577   -3.4583    0.0000 C   0  0  0  0  0  0  0  0  0  0  0  0
    1.9968   -2.3039    0.0000 C   0  0  0  0  0  0  0  0  0  0  0  0
    3.9889   -3.4583    0.0000 C   0  0  0  0  0  0  0  0  0  0  0  0
    2.6577   -1.1543    0.0000 C   0  0  0  0  0  0  0  0  0  0  0  0
    0.6656   -2.3039    0.0000 N   0  0  0  0  0  0  0  0  0  0  0  0
    4.6544   -2.3039    0.0000 C   0  0  0  0  0  0  0  0  0  0  0  0
    3.9889   -1.1543    0.0000 C   0  0  0  0  0  0  0  0  0  0  0  0
    0.0000   -3.4583    0.0000 O   0  0  0  0  0  0  0  0  0  0  0  0
    0.0000   -1.1543    0.0000 O   0  0  0  0  0  0  0  0  0  0  0  0
    4.6544   -0.0000    0.0000 N   0  0  0  0  0  0  0  0  0  0  0  0
  1  2  1  0  0  0  0 
  2  3  2  0  0  0  0 
  2  4  1  0  0  0  0 
  3  5  1  0  0  0  0 
  3  6  1  0  0  0  0 
  7  4  2  0  0  0  0 
  5  8  2  0  0  0  0 
  6  9  2  0  0  0  0 
  6 10  1  0  0  0  0 
  8  7  1  0  0  0  0 
  8 11  1  0  0  0  0 
M  CHG  1   6   1
M  CHG  1  10  -1
M  END
> <Name>
Phenol, 4-amino-2-nitro-

> <Source>
DSSTox2DMolFile

> <Tox>
3.880

> <CAS>
119-34-6

$$$$

  CDK

  9  9  0  0  0  0  0  0  0  0999 V2000
    4.6082   -0.0000    0.0000 Cl  0  0  0  0  0  0  0  0  0  0  0  0
    3.4561   -0.6636    0.0000 C   0  0  0  0  0  0  0  0  0  0  0  0
    3.4561   -1.9953    0.0000 C   0  0  0  0  0  0  0  0  0  0  0  0
    2.3041   -0.0000    0.0000 C   0  0  0  0  0  0  0  0  0  0  0  0
    4.6082   -2.6589    0.0000 Cl  0  0  0  0  0  0  0  0  0  0  0  0
    2.3041   -2.6589    0.0000 C   0  0  0  0  0  0  0  0  0  0  0  0
    1.1520   -0.6636    0.0000 C   0  0  0  0  0  0  0  0  0  0  0  0
    1.1520   -1.9953    0.0000 C   0  0  0  0  0  0  0  0  0  0  0  0
    0.0000   -2.6589    0.0000 Cl  0  0  0  0  0  0  0  0  0  0  0  0
  1  2  1  0  0  0  0 
  2  3  2  0  0  0  0 
  2  4  1  0  0  0  0 
  3  5  1  0  0  0  0 
  3  6  1  0  0  0  0 
  7  4  2  0  0  0  0 
  6  8  2  0  0  0  0 
  8  7  1  0  0  0  0 
  8  9  1  0  0  0  0 
M  END
> <Name>
Benzene, 1,2,4-trichloro-

> <Source>
DSSTox2DMolFile

> <Tox>
4.080

> <CAS>
120-82-1

$$$$

  CDK

  9  9  0  0  0  0  0  0  0  0999 V2000
    0.0000   -2.6589    0.0000 Cl  0  0  0  0  0  0  0  0  0  0  0  0
    1.1520   -1.9953    0.0000 C   0  0  0  0  0  0  0  0  0  0  0  0
    1.1520   -0.6636    0.0000 C   0  0  0  0  0  0  0  0  0  0  0  0
    2.3041   -2.6589    0.0000 C   0  0  0  0  0  0  0  0  0  0  0  0
    2.3041   -0.0000    0.0000 C   0  0  0  0  0  0  0  0  0  0  0  0
    0.0000   -0.0000    0.0000 O   0  0  0  0  0  0  0  0  0  0  0  0
    3.4561   -1.9953    0.0000 C   0  0  0  0  0  0  0  0  0  0  0  0
    3.4561   -0.6636    0.0000 C   0  0  0  0  0  0  0  0  0  0  0  0
    4.6082   -2.6589    0.0000 Cl  0  0  0  0  0  0  0  0  0  0  0  0
  1  2  1  0  0  0  0 
  2  3  2  0  0  0  0 
  2  4  1  0  0  0  0 
  3  5  1  0  0  0  0 
  3  6  1  0  0  0  0 
  7  4  2  0  0  0  0 
  5  8  2  0  0  0  0 
  8  7  1  0  0  0  0 
  7  9  1  0  0  0  0 
M  END
> <Name>
Phenol, 2,4-dichloro-

> <Source>
DSSTox2DMolFile

> <Tox>
4.040

> <CAS>
120-83-2

$$$$

  CDK

 10 10  0  0  0  0  0  0  0  0999 V2000
    1.0936    0.6695    1.9204 C   0  0  0  0  0  0  0  0  0  0  0  0
    1.7784    2.0038    2.0365 C   0  0  0  0  0  0  0  0  0  0  0  0
    1.1642    3.0511    2.0975 O   0  0  0  0  0  0  0  0  0  0  0  0
    3.2722    1.9632    2.0805 C   0  0  0  0  0  0  0  0  0  0  0  0
    3.9735    1.3937    1.0210 C   0  0  0  0  0  0  0  0  0  0  0  0
    3.9532    2.5034    3.1717 C   0  0  0  0  0  0  0  0  0  0  0  0
    5.3738    1.3693    1.0720 C   0  0  0  0  0  0  0  0  0  0  0  0
    5.3428    2.4687    3.2108 C   0  0  0  0  0  0  0  0  0  0  0  0
    6.0015    0.7956    0.0000 O   0  0  0  0  0  0  0  0  0  0  0  0
    6.0654    1.9034    2.1674 C   0  0  0  0  0  0  0  0  0  0  0  0
  1  2  1  0  0  0  0 
  2  3  2  0  0  0  0 
  2  4  1  0  0  0  0 
  5  4  2  0  0  0  0 
  4  6  1  0  0  0  0 
  7  5  1  0  0  0  0 
  6  8  2  0  0  0  0 
  7  9  1  0  0  0  0 
 10  7  2  0  0  0  0 
  8 10  1  0  0  0  0 
M  END
> <Name>
Acetophenone, 3'-hydroxy- (8CI)

> <Source>
NIST3DMolFile

> <Tox>
2.620

> <CAS>
121-71-1

$$$$

  CDK

 11 11  0  0  0  0  0  0  0  0999 V2000
    0.0000   -2.3037    0.0000 N   0  0  0  0  0  0  0  0  0  0  0  0
    1.3283   -2.3037    0.0000 C   0  0  0  0  0  0  0  0  0  0  0  0
    1.9925   -1.1488    0.0000 C   0  0  0  0  0  0  0  0  0  0  0  0
    1.9925   -3.4525    0.0000 C   0  0  0  0  0  0  0  0  0  0  0  0
    1.3283   -0.0000    0.0000 Cl  0  0  0  0  0  0  0  0  0  0  0  0
    3.3269   -1.1488    0.0000 C   0  0  0  0  0  0  0  0  0  0  0  0
    3.3269   -3.4525    0.0000 C   0  0  0  0  0  0  0  0  0  0  0  0
    3.9910   -2.3037    0.0000 C   0  0  0  0  0  0  0  0  0  0  0  0
    5.3194   -2.3037    0.0000 N   0  0  0  0  0  0  0  0  0  0  0  0
    5.9835   -1.1488    0.0000 O   0  0  0  0  0  0  0  0  0  0  0  0
    5.9835   -3.4525    0.0000 O   0  0  0  0  0  0  0  0  0  0  0  0
  1  2  1  0  0  0  0 
  2  3  2  0  0  0  0 
  2  4  1  0  0  0  0 
  3  5  1  0  0  0  0 
  3  6  1  0  0  0  0 
  7  4  2  0  0  0  0 
  6  8  2  0  0  0  0 
  8  7  1  0  0  0  0 
  8  9  1  0  0  0  0 
  9 10  1  0  0  0  0 
  9 11  2  0  0  0  0 
M  CHG  1   9   1
M  CHG  1  10  -1
M  END
> <Name>
Benzenamine, 2-chloro-4-nitro-

> <Source>
DSSTox2DMolFile

> <Tox>
3.750

> <CAS>
121-87-9

$$$$

  CDK

 12 12  0  0  0  0  0  0  0  0999 V2000
    4.2480    3.0398    5.8716 C   0  0  0  0  0  0  0  0  0  0  0  0
    3.2261    3.2838    4.9690 C   0  0  0  0  0  0  0  0  0  0  0  0
    5.2446    2.1031    5.5497 C   0  0  0  0  0  0  0  0  0  0  0  0
    3.1811    2.6027    3.7450 C   0  0  0  0  0  0  0  0  0  0  0  0
    5.2083    1.4206    4.3289 C   0  0  0  0  0  0  0  0  0  0  0  0
    6.2057    1.9490    6.5229 O   0  0  0  0  0  0  0  0  0  0  0  0
    4.1762    1.6746    3.4334 C   0  0  0  0  0  0  0  0  0  0  0  0
    2.0669    2.9061    2.8134 C   0  0  0  0  0  0  0  0  0  0  0  0
    7.2373    1.0230    6.2820 C   0  0  0  0  0  0  0  0  0  0  0  0
    2.0167    2.1089    1.7003 O   0  0  0  0  0  0  0  0  0  0  0  0
    1.2166    3.7681    2.9407 O   0  0  0  0  0  0  0  0  0  0  0  0
    0.9979    2.3408    0.7514 C   0  0  0  0  0  0  0  0  0  0  0  0
  2  1  2  0  0  0  0 
  1  3  1  0  0  0  0 
  4  2  1  0  0  0  0 
  3  5  2  0  0  0  0 
  3  6  1  0  0  0  0 
  7  4  2  0  0  0  0 
  4  8  1  0  0  0  0 
  5  7  1  0  0  0  0 
  6  9  1  0  0  0  0 
  8 10  1  0  0  0  0 
  8 11  2  0  0  0  0 
 12 10  1  0  0  0  0 
M  END
> <Name>
Benzoic acid, 4-methoxy-, methyl ester

> <Source>
NIST3DMolFile

> <Tox>
3.310

> <CAS>
121-98-2

$$$$

  CDK

 10 10  0  0  0  0  0  0  0  0999 V2000
    2.0883   -0.0031    0.1937 C   0  0  0  0  0  0  0  0  0  0  0  0
    3.4639    0.0098   -0.4096 C   0  0  0  0  0  0  0  0  0  0  0  0
    1.7873   -0.0068    1.3680 O   0  0  0  0  0  0  0  0  0  0  0  0
    1.1033   -0.0087   -0.7653 O   0  0  0  0  0  0  0  0  0  0  0  0
   -0.2311   -0.0037   -0.3538 C   0  0  0  0  0  0  0  0  0  0  0  0
   -0.8955    1.2182   -0.2142 C   0  0  0  0  0  0  0  0  0  0  0  0
   -0.9050   -1.2205   -0.2158 C   0  0  0  0  0  0  0  0  0  0  0  0
   -2.2577    1.2109    0.0644 C   0  0  0  0  0  0  0  0  0  0  0  0
   -2.2672   -1.2028    0.0626 C   0  0  0  0  0  0  0  0  0  0  0  0
   -2.9410    0.0066    0.2022 C   0  0  0  0  0  0  0  0  0  0  0  0
  1  2  1  0  0  0  0 
  1  3  2  0  0  0  0 
  1  4  1  0  0  0  0 
  4  5  1  0  0  0  0 
  5  6  1  0  0  0  0 
  5  7  2  0  0  0  0 
  6  8  2  0  0  0  0 
  9  7  1  0  0  0  0 
  8 10  1  0  0  0  0 
 10  9  2  0  0  0  0 
M  END
> <Name>
Acetic acid, phenyl ester

> <Source>
DougDB3DMolFile

> <Tox>
2.770

> <CAS>
122-79-2

$$$$

  CDK

 12 12  0  0  0  0  0  0  0  0999 V2000
    0.9972    0.8476    0.0000 C   0  0  0  0  0  0  0  0  0  0  0  0
    1.4958    1.7452    0.0000 N   0  0  0  0  0  0  0  0  0  0  0  0
    1.4958    0.0000    0.0000 C   0  0  0  0  0  0  0  0  0  0  0  0
    0.0000    0.8476    0.0000 O   0  0  0  0  0  0  0  0  0  0  0  0
    2.4931    1.7452    0.0000 C   0  0  0  0  0  0  0  0  0  0  0  0
    2.9917    2.5928    0.0000 C   0  0  0  0  0  0  0  0  0  0  0  0
    2.9917    0.8476    0.0000 C   0  0  0  0  0  0  0  0  0  0  0  0
    3.9889    2.5928    0.0000 C   0  0  0  0  0  0  0  0  0  0  0  0
    3.9889    0.8476    0.0000 C   0  0  0  0  0  0  0  0  0  0  0  0
    4.4875    1.7452    0.0000 C   0  0  0  0  0  0  0  0  0  0  0  0
    5.4848    1.7452    0.0000 C   0  0  0  0  0  0  0  0  0  0  0  0
    5.9834    2.5928    0.0000 O   0  0  0  0  0  0  0  0  0  0  0  0
  1  2  1  0  0  0  0 
  1  3  1  0  0  0  0 
  1  4  2  0  0  0  0 
  2  5  1  0  0  0  0 
  6  5  2  0  0  0  0 
  5  7  1  0  0  0  0 
  8  6  1  0  0  0  0 
  7  9  2  0  0  0  0 
 10  8  2  0  0  0  0 
  9 10  1  0  0  0  0 
 10 11  1  0  0  0  0 
 11 12  2  0  0  0  0 
M  END
> <Name>
Acetanilide, 4'-formyl- (8CI)

> <Source>
NIST2DMolFile

> <Tox>
2.780

> <CAS>
122-85-0

$$$$

  CDK

  9  8  0  0  0  0  0  0  0  0999 V2000
    1.9942   -2.3056    0.0000 C   0  0  0  0  0  0  0  0  0  0  0  0
    2.6589   -1.1498    0.0000 C   0  0  0  0  0  0  0  0  0  0  0  0
    0.6647   -2.3056    0.0000 C   0  0  0  0  0  0  0  0  0  0  0  0
    2.6589   -3.4553    0.0000 C   0  0  0  0  0  0  0  0  0  0  0  0
    1.9942   -0.0000    0.0000 C   0  0  0  0  0  0  0  0  0  0  0  0
    0.0000   -3.4553    0.0000 O   0  0  0  0  0  0  0  0  0  0  0  0
    3.9943   -3.4553    0.0000 C   0  0  0  0  0  0  0  0  0  0  0  0
    4.6590   -2.3056    0.0000 C   0  0  0  0  0  0  0  0  0  0  0  0
    5.9885   -2.3056    0.0000 C   0  0  0  0  0  0  0  0  0  0  0  0
  1  2  1  0  0  0  0 
  1  3  1  0  0  0  0 
  1  4  1  0  0  0  0 
  2  5  1  0  0  0  0 
  3  6  2  0  0  0  0 
  4  7  1  0  0  0  0 
  7  8  1  0  0  0  0 
  8  9  1  0  0  0  0 
M  END
> <Name>
Hexanal, 2-ethyl-

> <Source>
DSSTox2DMolFile

> <Tox>
3.161

> <CAS>
123-05-7

$$$$

  CDK

  9  9  0  0  0  0  0  0  0  0999 V2000
    5.9806   -1.1542    0.0000 O   0  0  0  0  0  0  0  0  0  0  0  0
    4.6529   -1.1542    0.0000 C   0  0  0  0  0  0  0  0  0  0  0  0
    3.9890   -2.3025    0.0000 C   0  0  0  0  0  0  0  0  0  0  0  0
    3.9890   -0.0000    0.0000 C   0  0  0  0  0  0  0  0  0  0  0  0
    2.6554   -2.3025    0.0000 C   0  0  0  0  0  0  0  0  0  0  0  0
    2.6554   -0.0000    0.0000 C   0  0  0  0  0  0  0  0  0  0  0  0
    1.9915   -1.1542    0.0000 C   0  0  0  0  0  0  0  0  0  0  0  0
    0.6638   -1.1542    0.0000 C   0  0  0  0  0  0  0  0  0  0  0  0
    0.0000   -0.0000    0.0000 C   0  0  0  0  0  0  0  0  0  0  0  0
  1  2  1  0  0  0  0 
  2  3  2  0  0  0  0 
  2  4  1  0  0  0  0 
  3  5  1  0  0  0  0 
  6  4  2  0  0  0  0 
  5  7  2  0  0  0  0 
  7  6  1  0  0  0  0 
  7  8  1  0  0  0  0 
  8  9  1  0  0  0  0 
M  END
> <Name>
Phenol, 4-ethyl-

> <Source>
DSSTox2DMolFile

> <Tox>
3.210

> <CAS>
123-07-9

$$$$

  CDK

  9  9  0  0  0  0  0  0  0  0999 V2000
    2.4494   -0.4237    0.0000 C   0  0  0  0  0  0  0  0  0  0  0  0
    0.9819   -0.2211    0.0000 C   0  0  0  0  0  0  0  0  0  0  0  0
    3.2548    0.4806    0.0000 O   0  0  0  0  0  0  0  0  0  0  0  0
    0.1461   -1.3432    0.0000 C   0  0  0  0  0  0  0  0  0  0  0  0
    0.4242    1.0585    0.0000 C   0  0  0  0  0  0  0  0  0  0  0  0
   -1.2319   -1.1987    0.0000 C   0  0  0  0  0  0  0  0  0  0  0  0
   -0.9541    1.2258    0.0000 C   0  0  0  0  0  0  0  0  0  0  0  0
   -1.7805    0.0936    0.0000 C   0  0  0  0  0  0  0  0  0  0  0  0
   -3.1430    0.1669    0.0000 O   0  0  0  0  0  0  0  0  0  0  0  0
  1  2  1  0  0  0  0 
  1  3  2  0  0  0  0 
  2  4  1  0  0  0  0 
  2  5  2  0  0  0  0 
  4  6  2  0  0  0  0 
  7  5  1  0  0  0  0 
  6  8  1  0  0  0  0 
  8  7  2  0  0  0  0 
  8  9  1  0  0  0  0 
M  END
> <Name>
Benzaldehyde, 4-hydroxy-

> <Source>
DougDB3DMolFile

> <Tox>
3.266

> <CAS>
123-08-0

$$$$

  CDK

 12 11  0  0  0  0  0  0  0  0999 V2000
   -1.8826    0.4244   -0.0034 C   0  0  0  0  0  0  0  0  0  0  0  0
   -0.6300   -0.4224   -0.0037 C   0  0  0  0  0  0  0  0  0  0  0  0
   -1.9775    1.6364   -0.0082 O   0  0  0  0  0  0  0  0  0  0  0  0
   -3.0147   -0.3358    0.0032 O   0  0  0  0  0  0  0  0  0  0  0  0
    0.6305    0.4255   -0.0081 C   0  0  0  0  0  0  0  0  0  0  0  0
   -4.2817    0.3262    0.0038 C   0  0  0  0  0  0  0  0  0  0  0  0
    1.8823   -0.4225   -0.0053 C   0  0  0  0  0  0  0  0  0  0  0  0
   -5.3349   -0.7648    0.0107 C   0  0  0  0  0  0  0  0  0  0  0  0
    1.9748   -1.6348   -0.0089 O   0  0  0  0  0  0  0  0  0  0  0  0
    3.0157    0.3358    0.0020 O   0  0  0  0  0  0  0  0  0  0  0  0
    4.2816   -0.3284    0.0048 C   0  0  0  0  0  0  0  0  0  0  0  0
    5.3366    0.7609    0.0120 C   0  0  0  0  0  0  0  0  0  0  0  0
  1  2  1  0  0  0  0 
  1  3  2  0  0  0  0 
  1  4  1  0  0  0  0 
  2  5  1  0  0  0  0 
  4  6  1  0  0  0  0 
  5  7  1  0  0  0  0 
  6  8  1  0  0  0  0 
  7  9  2  0  0  0  0 
  7 10  1  0  0  0  0 
 10 11  1  0  0  0  0 
 11 12  1  0  0  0  0 
M  END
> <Name>
Butanedioic acid, diethyl ester

> <Source>
DougDB3DMolFile

> <Tox>
2.149

> <CAS>
123-25-1

$$$$

  CDK

  7  6  0  0  0  0  0  0  0  0999 V2000
    4.6073   -1.9950    0.0000 C   0  0  0  0  0  0  0  0  0  0  0  0
    3.4555   -1.3315    0.0000 C   0  0  0  0  0  0  0  0  0  0  0  0
    3.4555   -0.0000    0.0000 O   0  0  0  0  0  0  0  0  0  0  0  0
    2.3037   -1.9950    0.0000 C   0  0  0  0  0  0  0  0  0  0  0  0
    1.1518   -1.3315    0.0000 C   0  0  0  0  0  0  0  0  0  0  0  0
    1.1518   -0.0000    0.0000 O   0  0  0  0  0  0  0  0  0  0  0  0
    0.0000   -1.9950    0.0000 C   0  0  0  0  0  0  0  0  0  0  0  0
  1  2  1  0  0  0  0 
  2  3  2  0  0  0  0 
  2  4  1  0  0  0  0 
  4  5  1  0  0  0  0 
  5  6  2  0  0  0  0 
  5  7  1  0  0  0  0 
M  END
> <Name>
2,4-Pentanedione

> <Source>
DSSTox2DMolFile

> <Tox>
2.728

> <CAS>
123-54-6

$$$$

  CDK

  9  8  0  0  0  0  0  0  0  0999 V2000
    0.0000   -0.6638    0.0000 C   0  0  0  0  0  0  0  0  0  0  0  0
    1.1525   -0.0000    0.0000 C   0  0  0  0  0  0  0  0  0  0  0  0
    2.3050   -0.6638    0.0000 C   0  0  0  0  0  0  0  0  0  0  0  0
    3.4575   -0.0000    0.0000 C   0  0  0  0  0  0  0  0  0  0  0  0
    4.6099   -0.6638    0.0000 C   0  0  0  0  0  0  0  0  0  0  0  0
    5.7624   -0.0000    0.0000 C   0  0  0  0  0  0  0  0  0  0  0  0
    6.9149   -0.6638    0.0000 C   0  0  0  0  0  0  0  0  0  0  0  0
    8.0674   -0.0000    0.0000 C   0  0  0  0  0  0  0  0  0  0  0  0
    9.2199   -0.6638    0.0000 O   0  0  0  0  0  0  0  0  0  0  0  0
  1  2  1  0  0  0  0 
  2  3  1  0  0  0  0 
  3  4  1  0  0  0  0 
  4  5  1  0  0  0  0 
  5  6  1  0  0  0  0 
  6  7  1  0  0  0  0 
  7  8  1  0  0  0  0 
  8  9  2  0  0  0  0 
M  END
> <Name>
1-Octanal

> <Source>
DSSTox2DMolFile

> <Tox>
3.483

> <CAS>
124-13-0

$$$$

  CDK

 11 11  0  0  0  0  0  0  0  0999 V2000
    2.7898   -3.8138    0.0000 C   0  0  0  0  0  0  0  0  0  0  0  0
    3.4549   -2.6606    0.0000 C   0  0  0  0  0  0  0  0  0  0  0  0
    2.3017   -1.9954    0.0000 C   0  0  0  0  0  0  0  0  0  0  0  0
    4.6082   -3.3257    0.0000 O   0  0  0  0  0  0  0  0  0  0  0  0
    4.1201   -1.5121    0.0000 C   0  0  0  0  0  0  0  0  0  0  0  0
    1.1532   -2.6606    0.0000 C   0  0  0  0  0  0  0  0  0  0  0  0
    2.3017   -0.6651    0.0000 C   0  0  0  0  0  0  0  0  0  0  0  0
    4.7852   -0.3589    0.0000 C   0  0  0  0  0  0  0  0  0  0  0  0
    0.0000   -1.9954    0.0000 C   0  0  0  0  0  0  0  0  0  0  0  0
    1.1532   -0.0000    0.0000 C   0  0  0  0  0  0  0  0  0  0  0  0
    0.0000   -0.6651    0.0000 C   0  0  0  0  0  0  0  0  0  0  0  0
  1  2  1  0  0  0  0 
  2  3  1  0  0  0  0 
  2  4  1  0  0  0  0 
  2  5  1  0  0  0  0 
  3  6  2  0  0  0  0 
  3  7  1  0  0  0  0 
  5  8  3  0  0  0  0 
  6  9  1  0  0  0  0 
 10  7  2  0  0  0  0 
  9 11  2  0  0  0  0 
 11 10  1  0  0  0  0 
M  END
> <Name>
Benzenemethanol, alpha-ethynyl-alpha-methyl-

> <Source>
DSSTox2DMolFile

> <Tox>
2.820

> <CAS>
127-66-2

$$$$

  CDK

 14 14  0  0  0  0  0  0  0  0999 V2000
    2.6608   -2.3037    0.0000 C   0  0  0  0  0  0  0  0  0  0  0  0
    1.9927   -3.4556    0.0000 C   0  0  0  0  0  0  0  0  0  0  0  0
    1.9927   -1.1519    0.0000 C   0  0  0  0  0  0  0  0  0  0  0  0
    3.9912   -2.3037    0.0000 C   0  0  0  0  0  0  0  0  0  0  0  0
    2.6608   -4.6074    0.0000 C   0  0  0  0  0  0  0  0  0  0  0  0
    0.6623   -3.4556    0.0000 C   0  0  0  0  0  0  0  0  0  0  0  0
    0.6623   -1.1519    0.0000 C   0  0  0  0  0  0  0  0  0  0  0  0
    4.6535   -3.4556    0.0000 O   0  0  0  0  0  0  0  0  0  0  0  0
    4.6535   -1.1519    0.0000 O   0  0  0  0  0  0  0  0  0  0  0  0
    1.9927   -5.7593    0.0000 O   0  0  0  0  0  0  0  0  0  0  0  0
    3.9912   -4.6074    0.0000 O   0  0  0  0  0  0  0  0  0  0  0  0
    0.0000   -2.3037    0.0000 C   0  0  0  0  0  0  0  0  0  0  0  0
    3.9912   -0.0000    0.0000 C   0  0  0  0  0  0  0  0  0  0  0  0
    4.6535   -5.7593    0.0000 C   0  0  0  0  0  0  0  0  0  0  0  0
  1  2  2  0  0  0  0 
  1  3  1  0  0  0  0 
  1  4  1  0  0  0  0 
  2  5  1  0  0  0  0 
  2  6  1  0  0  0  0 
  7  3  2  0  0  0  0 
  4  8  2  0  0  0  0 
  4  9  1  0  0  0  0 
  5 10  2  0  0  0  0 
  5 11  1  0  0  0  0 
  6 12  2  0  0  0  0 
 12  7  1  0  0  0  0 
  9 13  1  0  0  0  0 
 11 14  1  0  0  0  0 
M  END
> <Name>
1,2-Benzenedicarboxylic acid, dimethyl ester

> <Source>
DSSTox2DMolFile

> <Tox>
2.560

> <CAS>
131-11-3

$$$$

  CDK

 13 12  0  0  0  0  0  0  0  0999 V2000
    0.6742    4.0999    3.6379 C   0  0  0  0  0  0  0  0  0  0  0  0
    2.1160    4.4621    3.9357 C   0  0  0  0  0  0  0  0  0  0  0  0
    2.9260    3.5398    3.2019 O   0  0  0  0  0  0  0  0  0  0  0  0
    4.2806    3.6553    3.2845 C   0  0  0  0  0  0  0  0  0  0  0  0
    5.0023    2.6014    2.4480 C   0  0  0  0  0  0  0  0  0  0  0  0
    4.7705    4.5237    3.9772 O   0  0  0  0  0  0  0  0  0  0  0  0
    5.9069    3.3108    1.4424 C   0  0  0  0  0  0  0  0  0  0  0  0
    5.7591    1.6269    3.3527 C   0  0  0  0  0  0  0  0  0  0  0  0
    7.1808    3.5270    1.8723 O   0  0  0  0  0  0  0  0  0  0  0  0
    5.5724    3.6575    0.3267 O   0  0  0  0  0  0  0  0  0  0  0  0
    4.8194    0.7002    4.0911 C   0  0  0  0  0  0  0  0  0  0  0  0
    8.0945    4.2428    1.0472 C   0  0  0  0  0  0  0  0  0  0  0  0
    7.9092    5.7445    1.1384 C   0  0  0  0  0  0  0  0  0  0  0  0
  1  2  1  0  0  0  0 
  2  3  1  0  0  0  0 
  3  4  1  0  0  0  0 
  4  5  1  0  0  0  0 
  4  6  2  0  0  0  0 
  5  7  1  0  0  0  0 
  5  8  1  0  0  0  0 
  7  9  1  0  0  0  0 
  7 10  2  0  0  0  0 
  8 11  1  0  0  0  0 
  9 12  1  0  0  0  0 
 12 13  1  0  0  0  0 
M  END
> <Name>
Malonic acid, ethyl-, diethyl ester (8CI)

> <Source>
NIST3DMolFile

> <Tox>
2.758

> <CAS>
133-13-1

$$$$

  CDK

 15 16  0  0  0  0  0  0  0  0999 V2000
   -0.5739    2.3915    0.0005 O   0  0  0  0  0  0  0  0  0  0  0  0
   -0.4697    1.1559    0.0003 C   0  0  0  0  0  0  0  0  0  0  0  0
    0.9111    0.5845    0.0000 C   0  0  0  0  0  0  0  0  0  0  0  0
   -1.6592    0.3197   -0.0001 C   0  0  0  0  0  0  0  0  0  0  0  0
    1.5187    0.3337   -1.2079 C   0  0  0  0  0  0  0  0  0  0  0  0
    1.5186    0.3329    1.2081 C   0  0  0  0  0  0  0  0  0  0  0  0
   -1.5352   -1.0697    0.0002 C   0  0  0  0  0  0  0  0  0  0  0  0
   -2.9247    0.9067   -0.0002 C   0  0  0  0  0  0  0  0  0  0  0  0
    2.8077   -0.1994   -1.2080 C   0  0  0  0  0  0  0  0  0  0  0  0
    2.8076   -0.2000    1.2081 C   0  0  0  0  0  0  0  0  0  0  0  0
   -2.6763   -1.8720    0.0000 C   0  0  0  0  0  0  0  0  0  0  0  0
   -4.0658    0.1044   -0.0003 C   0  0  0  0  0  0  0  0  0  0  0  0
    3.4523   -0.4662   -0.0001 C   0  0  0  0  0  0  0  0  0  0  0  0
   -3.9415   -1.2850   -0.0001 C   0  0  0  0  0  0  0  0  0  0  0  0
    4.8303   -1.0369   -0.0003 C   0  0  0  0  0  0  0  0  0  0  0  0
  1  2  2  0  0  0  0 
  3  2  1  0  0  0  0 
  4  2  1  0  0  0  0 
  3  5  2  0  0  0  0 
  3  6  1  0  0  0  0 
  4  7  2  0  0  0  0 
  4  8  1  0  0  0  0 
  5  9  1  0  0  0  0 
  6 10  2  0  0  0  0 
  7 11  1  0  0  0  0 
  8 12  2  0  0  0  0 
 13  9  2  0  0  0  0 
 13 10  1  0  0  0  0 
 11 14  2  0  0  0  0 
 12 14  1  0  0  0  0 
 13 15  1  0  0  0  0 
M  END
> <Name>
(4-methylphenyl)-phenylmethanone

> <Source>
Chemidplus3DMolFile

> <Tox>
4.400

> <CAS>
134-84-9

$$$$

  CDK

 15 16  0  0  0  0  0  0  0  0999 V2000
    2.5952    3.0942    0.0000 O   0  0  0  0  0  0  0  0  0  0  0  0
    2.5952    2.0462    0.0000 C   0  0  0  0  0  0  0  0  0  0  0  0
    3.4935    1.5471    0.0000 C   0  0  0  0  0  0  0  0  0  0  0  0
    1.7467    1.5471    0.0000 C   0  0  0  0  0  0  0  0  0  0  0  0
    4.3419    2.0462    0.0000 C   0  0  0  0  0  0  0  0  0  0  0  0
    3.4935    0.5490    0.0000 C   0  0  0  0  0  0  0  0  0  0  0  0
    1.7467    0.5490    0.0000 C   0  0  0  0  0  0  0  0  0  0  0  0
    0.8983    2.0462    0.0000 C   0  0  0  0  0  0  0  0  0  0  0  0
    5.1903    1.4972    0.0000 C   0  0  0  0  0  0  0  0  0  0  0  0
    4.3419    0.0499    0.0000 C   0  0  0  0  0  0  0  0  0  0  0  0
    0.8484    0.0499    0.0000 C   0  0  0  0  0  0  0  0  0  0  0  0
    0.0000    1.5471    0.0000 C   0  0  0  0  0  0  0  0  0  0  0  0
    5.1903    0.4991    0.0000 C   0  0  0  0  0  0  0  0  0  0  0  0
    0.0000    0.5490    0.0000 C   0  0  0  0  0  0  0  0  0  0  0  0
    6.0388    0.0000    0.0000 Cl  0  0  0  0  0  0  0  0  0  0  0  0
  1  2  2  0  0  0  0 
  2  3  1  0  0  0  0 
  2  4  1  0  0  0  0 
  3  5  2  0  0  0  0 
  6  3  1  0  0  0  0 
  4  7  2  0  0  0  0 
  8  4  1  0  0  0  0 
  5  9  1  0  0  0  0 
 10  6  2  0  0  0  0 
  7 11  1  0  0  0  0 
 12  8  2  0  0  0  0 
  9 13  2  0  0  0  0 
 13 10  1  0  0  0  0 
 11 14  2  0  0  0  0 
 14 12  1  0  0  0  0 
 13 15  1  0  0  0  0 
M  END
> <Name>
Benzophenone, 4-chloro- (8CI)

> <Source>
NIST2DMolFile

> <Tox>
4.500

> <CAS>
134-85-0

$$$$

  CDK

 11 12  0  0  0  0  0  0  0  0999 V2000
    2.3040   -0.6566    0.0000 C   0  0  0  0  0  0  0  0  0  0  0  0
    2.3040   -1.9987    0.0000 C   0  0  0  0  0  0  0  0  0  0  0  0
    1.1520   -0.0000    0.0000 C   0  0  0  0  0  0  0  0  0  0  0  0
    3.4559   -0.0000    0.0000 C   0  0  0  0  0  0  0  0  0  0  0  0
    1.1520   -2.6553    0.0000 C   0  0  0  0  0  0  0  0  0  0  0  0
    3.4559   -2.6553    0.0000 C   0  0  0  0  0  0  0  0  0  0  0  0
    0.0000   -0.6566    0.0000 C   0  0  0  0  0  0  0  0  0  0  0  0
    4.6079   -0.6566    0.0000 C   0  0  0  0  0  0  0  0  0  0  0  0
    0.0000   -1.9987    0.0000 C   0  0  0  0  0  0  0  0  0  0  0  0
    4.6079   -1.9987    0.0000 C   0  0  0  0  0  0  0  0  0  0  0  0
    5.7599   -0.0000    0.0000 O   0  0  0  0  0  0  0  0  0  0  0  0
  1  2  2  0  0  0  0 
  1  3  1  0  0  0  0 
  1  4  1  0  0  0  0 
  2  5  1  0  0  0  0 
  2  6  1  0  0  0  0 
  3  7  2  0  0  0  0 
  4  8  2  0  0  0  0 
  5  9  2  0  0  0  0 
  6 10  2  0  0  0  0 
  9  7  1  0  0  0  0 
  8 10  1  0  0  0  0 
  8 11  1  0  0  0  0 
M  END
> <Name>
2-Naphthalenol

> <Source>
DSSTox2DMolFile

> <Tox>
3.790

> <CAS>
135-19-3

$$$$

  CDK

 15 15  0  0  0  0  0  0  0  0999 V2000
    3.1745   -1.1743    0.0000 C   0  0  0  0  0  0  0  0  0  0  0  0
    4.2807   -1.8032    0.0000 C   0  0  0  0  0  0  0  0  0  0  0  0
    2.5381   -2.2729    0.0000 C   0  0  0  0  0  0  0  0  0  0  0  0
    2.3638   -0.0000    0.0000 C   0  0  0  0  0  0  0  0  0  0  0  0
    3.8185   -0.0758    0.0000 C   0  0  0  0  0  0  0  0  0  0  0  0
    5.3792   -1.1743    0.0000 C   0  0  0  0  0  0  0  0  0  0  0  0
    4.2807   -3.0684    0.0000 C   0  0  0  0  0  0  0  0  0  0  0  0
    1.2804   -2.2729    0.0000 C   0  0  0  0  0  0  0  0  0  0  0  0
    6.4778   -1.8032    0.0000 C   0  0  0  0  0  0  0  0  0  0  0  0
    5.3792   -3.7124    0.0000 C   0  0  0  0  0  0  0  0  0  0  0  0
    0.0000   -2.5987    0.0000 C   0  0  0  0  0  0  0  0  0  0  0  0
    0.2728   -0.8258    0.0000 C   0  0  0  0  0  0  0  0  0  0  0  0
    0.9925   -3.7276    0.0000 C   0  0  0  0  0  0  0  0  0  0  0  0
    6.4778   -3.0684    0.0000 C   0  0  0  0  0  0  0  0  0  0  0  0
    7.5764   -3.7124    0.0000 O   0  0  0  0  0  0  0  0  0  0  0  0
  1  2  1  0  0  0  0 
  1  3  1  0  0  0  0 
  1  4  1  0  0  0  0 
  1  5  1  0  0  0  0 
  2  6  2  0  0  0  0 
  2  7  1  0  0  0  0 
  3  8  1  0  0  0  0 
  6  9  1  0  0  0  0 
 10  7  2  0  0  0  0 
  8 11  1  0  0  0  0 
  8 12  1  0  0  0  0 
  8 13  1  0  0  0  0 
  9 14  2  0  0  0  0 
 14 10  1  0  0  0  0 
 14 15  1  0  0  0  0 
M  END
> <Name>
Phenol, 4-(1,1,3,3-tetramethylbutyl)-

> <Source>
DSSTox2DMolFile

> <Tox>
5.100

> <CAS>
140-66-9

$$$$

  CDK

 11 11  0  0  0  0  0  0  0  0999 V2000
    0.0000   -0.0000    0.0000 C   0  0  0  0  0  0  0  0  0  0  0  0
    1.3316   -0.0000    0.0000 C   0  0  0  0  0  0  0  0  0  0  0  0
    1.9934   -1.1561    0.0000 C   0  0  0  0  0  0  0  0  0  0  0  0
    3.3249   -1.1561    0.0000 C   0  0  0  0  0  0  0  0  0  0  0  0
    3.9867   -0.0000    0.0000 C   0  0  0  0  0  0  0  0  0  0  0  0
    3.9867   -2.3043    0.0000 C   0  0  0  0  0  0  0  0  0  0  0  0
    5.3183   -0.0000    0.0000 C   0  0  0  0  0  0  0  0  0  0  0  0
    5.3183   -2.3043    0.0000 C   0  0  0  0  0  0  0  0  0  0  0  0
    5.9801   -1.1561    0.0000 C   0  0  0  0  0  0  0  0  0  0  0  0
    7.3116   -1.1561    0.0000 O   0  0  0  0  0  0  0  0  0  0  0  0
    7.9734   -2.3043    0.0000 C   0  0  0  0  0  0  0  0  0  0  0  0
  1  2  2  0  0  0  0 
  2  3  1  0  0  0  0 
  3  4  1  0  0  0  0 
  4  5  2  0  0  0  0 
  4  6  1  0  0  0  0 
  5  7  1  0  0  0  0 
  8  6  2  0  0  0  0 
  7  9  2  0  0  0  0 
  9  8  1  0  0  0  0 
  9 10  1  0  0  0  0 
 10 11  1  0  0  0  0 
M  END
> <Name>
Benzene, 1-methoxy-4-(2-propenyl)-

> <Source>
DSSTox2DMolFile

> <Tox>
3.640

> <CAS>
140-67-0

$$$$

  CDK

  7  6  0  0  0  0  0  0  0  0999 V2000
    0.0000   -0.0000    0.0000 C   0  0  0  0  0  0  0  0  0  0  0  0
    1.1413   -0.6627    0.0000 C   0  0  0  0  0  0  0  0  0  0  0  0
    2.2826   -0.0000    0.0000 C   0  0  0  0  0  0  0  0  0  0  0  0
    1.1413   -1.9972    0.0000 O   0  0  0  0  0  0  0  0  0  0  0  0
    3.4607   -0.6627    0.0000 C   0  0  0  0  0  0  0  0  0  0  0  0
    4.6020   -0.0000    0.0000 C   0  0  0  0  0  0  0  0  0  0  0  0
    3.4607   -1.9972    0.0000 C   0  0  0  0  0  0  0  0  0  0  0  0
  1  2  1  0  0  0  0 
  2  3  1  0  0  0  0 
  2  4  2  0  0  0  0 
  3  5  2  0  0  0  0 
  5  6  1  0  0  0  0 
  5  7  1  0  0  0  0 
M  END
> <Name>
3-Penten-2-one, 4-methyl-

> <Source>
DSSTox2DMolFile

> <Tox>
2.360

> <CAS>
141-79-7

$$$$

  CDK

  7  6  0  0  0  0  0  0  0  0999 V2000
    3.4555   -0.0000    0.0000 O   0  0  0  0  0  0  0  0  0  0  0  0
    3.4555   -1.3315    0.0000 C   0  0  0  0  0  0  0  0  0  0  0  0
    4.6073   -1.9950    0.0000 O   0  0  0  0  0  0  0  0  0  0  0  0
    2.3037   -1.9950    0.0000 C   0  0  0  0  0  0  0  0  0  0  0  0
    1.1518   -1.3315    0.0000 C   0  0  0  0  0  0  0  0  0  0  0  0
    0.0000   -1.9950    0.0000 O   0  0  0  0  0  0  0  0  0  0  0  0
    1.1518   -0.0000    0.0000 O   0  0  0  0  0  0  0  0  0  0  0  0
  1  2  2  0  0  0  0 
  2  3  1  0  0  0  0 
  2  4  1  0  0  0  0 
  4  5  1  0  0  0  0 
  5  6  1  0  0  0  0 
  5  7  2  0  0  0  0 
M  END
> <Name>
Propanedioic acid

> <Source>
DSSTox2DMolFile

> <Tox>
2.291

> <CAS>
141-82-2

$$$$

  CDK

  9  9  0  0  0  0  0  0  0  0999 V2000
    0.0000   -0.0000    0.0000 C   0  0  0  0  0  0  0  0  0  0  0  0
    0.6638   -1.1542    0.0000 O   0  0  0  0  0  0  0  0  0  0  0  0
    1.9915   -1.1542    0.0000 C   0  0  0  0  0  0  0  0  0  0  0  0
    2.6554   -0.0000    0.0000 C   0  0  0  0  0  0  0  0  0  0  0  0
    2.6554   -2.3025    0.0000 C   0  0  0  0  0  0  0  0  0  0  0  0
    3.9890   -0.0000    0.0000 C   0  0  0  0  0  0  0  0  0  0  0  0
    3.9890   -2.3025    0.0000 C   0  0  0  0  0  0  0  0  0  0  0  0
    4.6529   -1.1542    0.0000 C   0  0  0  0  0  0  0  0  0  0  0  0
    5.9806   -1.1542    0.0000 O   0  0  0  0  0  0  0  0  0  0  0  0
  1  2  1  0  0  0  0 
  2  3  1  0  0  0  0 
  3  4  2  0  0  0  0 
  3  5  1  0  0  0  0 
  4  6  1  0  0  0  0 
  7  5  2  0  0  0  0 
  6  8  2  0  0  0  0 
  8  7  1  0  0  0  0 
  8  9  1  0  0  0  0 
M  END
> <Name>
Phenol, 4-methoxy-

> <Source>
DSSTox2DMolFile

> <Tox>
2.860

> <CAS>
150-76-5

$$$$

  CDK

 14 16  0  0  0  0  0  0  0  0999 V2000
    4.6083   -0.6633    0.0000 C   0  0  0  0  0  0  0  0  0  0  0  0
    5.7552   -0.0000    0.0000 C   0  0  0  0  0  0  0  0  0  0  0  0
    4.6083   -1.9967    0.0000 C   0  0  0  0  0  0  0  0  0  0  0  0
    3.4545   -0.0000    0.0000 O   0  0  0  0  0  0  0  0  0  0  0  0
    6.9090   -0.6633    0.0000 C   0  0  0  0  0  0  0  0  0  0  0  0
    5.7552   -2.6600    0.0000 C   0  0  0  0  0  0  0  0  0  0  0  0
    3.4545   -2.6600    0.0000 S   0  0  0  0  0  0  0  0  0  0  0  0
    2.3007   -0.6633    0.0000 C   0  0  0  0  0  0  0  0  0  0  0  0
    6.9090   -1.9967    0.0000 C   0  0  0  0  0  0  0  0  0  0  0  0
    2.3007   -1.9967    0.0000 C   0  0  0  0  0  0  0  0  0  0  0  0
    1.1538   -0.0000    0.0000 C   0  0  0  0  0  0  0  0  0  0  0  0
    1.1538   -2.6600    0.0000 C   0  0  0  0  0  0  0  0  0  0  0  0
    0.0000   -0.6633    0.0000 C   0  0  0  0  0  0  0  0  0  0  0  0
    0.0000   -1.9967    0.0000 C   0  0  0  0  0  0  0  0  0  0  0  0
  1  2  2  0  0  0  0 
  1  3  1  0  0  0  0 
  1  4  1  0  0  0  0 
  2  5  1  0  0  0  0 
  6  3  2  0  0  0  0 
  3  7  1  0  0  0  0 
  8  4  1  0  0  0  0 
  5  9  2  0  0  0  0 
  9  6  1  0  0  0  0 
  7 10  1  0  0  0  0 
 10  8  1  0  0  0  0 
 11  8  2  0  0  0  0 
 10 12  2  0  0  0  0 
 13 11  1  0  0  0  0 
 12 14  1  0  0  0  0 
 14 13  2  0  0  0  0 
M  END
> <Name>
Dibenzooxathiane

> <Source>
DSSTox2DMolFile

> <Tox>
5.040

> <CAS>
262-20-4

$$$$

  CDK

 15 16  0  0  0  0  0  0  0  0999 V2000
    1.2941   -0.8436    2.0363 F   0  0  0  0  0  0  0  0  0  0  0  0
    1.8331   -0.2885    0.9414 C   0  0  0  0  0  0  0  0  0  0  0  0
    1.2009   -0.3232   -0.2797 C   0  0  0  0  0  0  0  0  0  0  0  0
    3.0723    0.3454    1.0329 C   0  0  0  0  0  0  0  0  0  0  0  0
   -0.1263   -1.0021   -0.3817 C   0  0  0  0  0  0  0  0  0  0  0  0
    1.7373    0.2399   -1.4143 C   0  0  0  0  0  0  0  0  0  0  0  0
    3.6439    0.9266   -0.0989 C   0  0  0  0  0  0  0  0  0  0  0  0
   -0.1269   -2.2120   -0.6539 O   0  0  0  0  0  0  0  0  0  0  0  0
   -1.3808   -0.2965   -0.1748 C   0  0  0  0  0  0  0  0  0  0  0  0
    2.9765    0.8738   -1.3225 C   0  0  0  0  0  0  0  0  0  0  0  0
   -1.3733    1.0646    0.1305 C   0  0  0  0  0  0  0  0  0  0  0  0
   -2.5918   -0.9805   -0.2820 C   0  0  0  0  0  0  0  0  0  0  0  0
   -2.5766    1.7417    0.3288 C   0  0  0  0  0  0  0  0  0  0  0  0
   -3.7951   -0.3033   -0.0837 C   0  0  0  0  0  0  0  0  0  0  0  0
   -3.7874    1.0578    0.2216 C   0  0  0  0  0  0  0  0  0  0  0  0
  1  2  1  0  0  0  0 
  3  2  1  0  0  0  0 
  2  4  2  0  0  0  0 
  3  5  1  0  0  0  0 
  3  6  2  0  0  0  0 
  4  7  1  0  0  0  0 
  8  5  2  0  0  0  0 
  9  5  1  0  0  0  0 
  6 10  1  0  0  0  0 
 10  7  2  0  0  0  0 
  9 11  2  0  0  0  0 
  9 12  1  0  0  0  0 
 11 13  1  0  0  0  0 
 12 14  2  0  0  0  0 
 13 15  2  0  0  0  0 
 14 15  1  0  0  0  0 
M  END
> <Name>
(2-fluorophenyl)-phenyl-methanone

> <Source>
Chemidplus3DMolFile

> <Tox>
3.960

> <CAS>
342-24-5

$$$$

  CDK

  8  8  0  0  0  0  0  0  0  0999 V2000
    0.5044    0.8574    0.0000 C   0  0  0  0  0  0  0  0  0  0  0  0
    0.0000    1.7148    0.0000 C   0  0  0  0  0  0  0  0  0  0  0  0
    1.5131    0.8574    0.0000 C   0  0  0  0  0  0  0  0  0  0  0  0
    0.5044    2.5723    0.0000 C   0  0  0  0  0  0  0  0  0  0  0  0
    2.0175    1.7148    0.0000 C   0  0  0  0  0  0  0  0  0  0  0  0
    2.0175    0.0000    0.0000 F   0  0  0  0  0  0  0  0  0  0  0  0
    1.5131    2.5723    0.0000 C   0  0  0  0  0  0  0  0  0  0  0  0
    3.0262    1.7148    0.0000 N   0  0  0  0  0  0  0  0  0  0  0  0
  1  2  2  0  0  0  0 
  3  1  1  0  0  0  0 
  2  4  1  0  0  0  0 
  5  3  2  0  0  0  0 
  3  6  1  0  0  0  0 
  4  7  2  0  0  0  0 
  7  5  1  0  0  0  0 
  5  8  1  0  0  0  0 
M  END
> <Name>
Aniline, o-fluoro- (8CI)

> <Source>
NIST2DMolFile

> <Tox>
2.630

> <CAS>
348-54-9

$$$$

  CDK

  8  8  0  0  0  0  0  0  0  0999 V2000
    0.9976    0.0000    0.0000 F   0  0  0  0  0  0  0  0  0  0  0  0
    1.4964    0.8480    0.0000 C   0  0  0  0  0  0  0  0  0  0  0  0
    0.9477    1.7458    0.0000 C   0  0  0  0  0  0  0  0  0  0  0  0
    2.4442    0.8480    0.0000 C   0  0  0  0  0  0  0  0  0  0  0  0
    0.0000    1.7458    0.0000 O   0  0  0  0  0  0  0  0  0  0  0  0
    1.4466    2.5938    0.0000 C   0  0  0  0  0  0  0  0  0  0  0  0
    2.9929    1.6960    0.0000 C   0  0  0  0  0  0  0  0  0  0  0  0
    2.4941    2.5938    0.0000 C   0  0  0  0  0  0  0  0  0  0  0  0
  1  2  1  0  0  0  0 
  3  2  2  0  0  0  0 
  2  4  1  0  0  0  0 
  3  5  1  0  0  0  0 
  6  3  1  0  0  0  0 
  4  7  2  0  0  0  0 
  8  6  2  0  0  0  0 
  7  8  1  0  0  0  0 
M  END
> <Name>
Phenol, 2-fluoro-

> <Source>
NIST2DMolFile

> <Tox>
3.190

> <CAS>
367-12-4

$$$$

  CDK

  8  8  0  0  0  0  0  0  0  0999 V2000
    0.0000    1.7462    0.0000 F   0  0  0  0  0  0  0  0  0  0  0  0
    0.9978    1.7462    0.0000 C   0  0  0  0  0  0  0  0  0  0  0  0
    1.4967    0.8481    0.0000 C   0  0  0  0  0  0  0  0  0  0  0  0
    1.4967    2.5943    0.0000 C   0  0  0  0  0  0  0  0  0  0  0  0
    2.4945    0.8481    0.0000 C   0  0  0  0  0  0  0  0  0  0  0  0
    2.4945    2.5943    0.0000 C   0  0  0  0  0  0  0  0  0  0  0  0
    2.9934    0.0000    0.0000 N   0  0  0  0  0  0  0  0  0  0  0  0
    2.9934    1.7462    0.0000 C   0  0  0  0  0  0  0  0  0  0  0  0
  1  2  1  0  0  0  0 
  2  3  2  0  0  0  0 
  4  2  1  0  0  0  0 
  3  5  1  0  0  0  0 
  6  4  2  0  0  0  0 
  5  7  1  0  0  0  0 
  5  8  2  0  0  0  0 
  8  6  1  0  0  0  0 
M  END
> <Name>
Aniline, m-fluoro- (8CI)

> <Source>
NIST2DMolFile

> <Tox>
2.900

> <CAS>
372-19-0

$$$$

  CDK

  8  8  0  0  0  0  0  0  0  0999 V2000
    1.4636    2.6245    0.0000 C   0  0  0  0  0  0  0  0  0  0  0  0
    0.9589    1.7665    0.0000 C   0  0  0  0  0  0  0  0  0  0  0  0
    2.4731    2.6245    0.0000 C   0  0  0  0  0  0  0  0  0  0  0  0
    1.4636    0.9085    0.0000 C   0  0  0  0  0  0  0  0  0  0  0  0
    0.0000    1.7665    0.0000 O   0  0  0  0  0  0  0  0  0  0  0  0
    2.9778    1.7665    0.0000 C   0  0  0  0  0  0  0  0  0  0  0  0
    2.4731    0.8580    0.0000 C   0  0  0  0  0  0  0  0  0  0  0  0
    2.9778    0.0000    0.0000 F   0  0  0  0  0  0  0  0  0  0  0  0
  1  2  2  0  0  0  0 
  3  1  1  0  0  0  0 
  2  4  1  0  0  0  0 
  2  5  1  0  0  0  0 
  6  3  2  0  0  0  0 
  4  7  2  0  0  0  0 
  7  6  1  0  0  0  0 
  7  8  1  0  0  0  0 
M  END
> <Name>
3-fluorophenol

> <Source>
NIST2DMolFile

> <Tox>
3.380

> <CAS>
372-20-3

$$$$

  CDK

 11 11  0  0  0  0  0  0  0  0999 V2000
   -2.9033    1.4856    0.1288 F   0  0  0  0  0  0  0  0  0  0  0  0
   -1.8971    0.6040    0.0599 C   0  0  0  0  0  0  0  0  0  0  0  0
   -0.5758    1.0497    0.0929 C   0  0  0  0  0  0  0  0  0  0  0  0
   -2.1707   -0.7597   -0.0450 C   0  0  0  0  0  0  0  0  0  0  0  0
    0.4719    0.1316    0.0211 C   0  0  0  0  0  0  0  0  0  0  0  0
   -1.1231   -1.6778   -0.1166 C   0  0  0  0  0  0  0  0  0  0  0  0
    0.1982   -1.2321   -0.0837 C   0  0  0  0  0  0  0  0  0  0  0  0
    1.8440    0.6182    0.0575 C   0  0  0  0  0  0  0  0  0  0  0  0
    1.2077   -2.1449   -0.1556 O   0  0  0  0  0  0  0  0  0  0  0  0
    2.7645   -0.0712    0.5374 O   0  0  0  0  0  0  0  0  0  0  0  0
    2.1837    1.9965   -0.4967 C   0  0  0  0  0  0  0  0  0  0  0  0
  1  2  1  0  0  0  0 
  3  2  2  0  0  0  0 
  2  4  1  0  0  0  0 
  5  3  1  0  0  0  0 
  6  4  2  0  0  0  0 
  5  7  2  0  0  0  0 
  5  8  1  0  0  0  0 
  7  6  1  0  0  0  0 
  9  7  1  0  0  0  0 
 10  8  2  0  0  0  0 
  8 11  1  0  0  0  0 
M  END
> <Name>
1-(5-fluoro-2-hydroxyphenyl)ethanone

> <Source>
Chemidplus3DMolFile

> <Tox>
3.040

> <CAS>
394-32-1

$$$$

  CDK

 11 11  0  0  0  0  0  0  0  0999 V2000
    2.5047    0.8690    0.0000 C   0  0  0  0  0  0  0  0  0  0  0  0
    1.5335    0.8690    0.0000 C   0  0  0  0  0  0  0  0  0  0  0  0
    2.9647    1.6868    0.0000 C   0  0  0  0  0  0  0  0  0  0  0  0
    3.0158    0.0000    0.0000 F   0  0  0  0  0  0  0  0  0  0  0  0
    0.9712    1.6868    0.0000 C   0  0  0  0  0  0  0  0  0  0  0  0
    2.5047    2.6069    0.0000 C   0  0  0  0  0  0  0  0  0  0  0  0
    4.0381    1.6868    0.0000 N   0  0  0  0  0  0  0  0  0  0  0  0
    1.5335    2.6069    0.0000 C   0  0  0  0  0  0  0  0  0  0  0  0
    0.0000    1.6868    0.0000 O   0  0  0  0  0  0  0  0  0  0  0  0
    4.4982    2.6069    0.0000 O   0  0  0  0  0  0  0  0  0  0  0  0
    4.4982    0.8690    0.0000 O   0  0  0  0  0  0  0  0  0  0  0  0
  2  1  2  0  0  0  0 
  1  3  1  0  0  0  0 
  1  4  1  0  0  0  0 
  5  2  1  0  0  0  0 
  3  6  2  0  0  0  0 
  3  7  1  0  0  0  0 
  8  5  2  0  0  0  0 
  5  9  1  0  0  0  0 
  6  8  1  0  0  0  0 
  7 10  2  0  0  0  0 
  7 11  2  0  0  0  0 
M  END
> <Name>
Phenol, 3-fluoro-4-nitro-

> <Source>
NIST2DMolFile

> <Tox>
3.930

> <CAS>
394-41-2

$$$$

  CDK

 11 11  0  0  0  0  0  0  0  0999 V2000
    0.0000    0.0000    0.0000 O   0  0  0  0  0  0  0  0  0  0  0  0
    1.1600    0.1000   -0.4000 N   0  0  0  0  0  0  0  0  0  0  0  0
    1.9000   -0.8200   -0.7200 O   0  0  0  0  0  0  0  0  0  0  0  0
    1.7000    1.3800   -0.4800 C   0  0  0  0  0  0  0  0  0  0  0  0
    0.8400    2.5000   -0.6000 C   0  0  0  0  0  0  0  0  0  0  0  0
    3.0800    1.5600   -0.4200 C   0  0  0  0  0  0  0  0  0  0  0  0
   -0.6400    2.3000   -0.6400 C   0  0  0  0  0  0  0  0  0  0  0  0
    1.3800    3.7800   -0.6600 C   0  0  0  0  0  0  0  0  0  0  0  0
    3.6400    2.8600   -0.5000 C   0  0  0  0  0  0  0  0  0  0  0  0
    2.7800    3.9600   -0.6200 C   0  0  0  0  0  0  0  0  0  0  0  0
    4.9600    3.0200   -0.4600 F   0  0  0  0  0  0  0  0  0  0  0  0
  1  2  1  0  0  0  0 
  2  3  2  0  0  0  0 
  2  4  1  0  0  0  0 
  5  4  2  0  0  0  0 
  4  6  1  0  0  0  0 
  7  5  1  0  0  0  0 
  5  8  1  0  0  0  0 
  9  6  2  0  0  0  0 
  8 10  2  0  0  0  0 
 10  9  1  0  0  0  0 
  9 11  1  0  0  0  0 
M  CHG  1   1  -1
M  CHG  1   2   1
M  END
> <Name>
4-fluoro-1-methyl-2-nitrobenzene

> <Source>
NIH3DMolFile

> <Tox>
3.250

> <CAS>
446-10-6

$$$$

  CDK

  9  9  0  0  0  0  0  0  0  0999 V2000
    3.5207    1.7101    0.0000 C   0  0  0  0  0  0  0  0  0  0  0  0
    2.9675    0.8550    0.0000 C   0  0  0  0  0  0  0  0  0  0  0  0
    2.9675    2.5651    0.0000 C   0  0  0  0  0  0  0  0  0  0  0  0
    1.9616    0.8550    0.0000 C   0  0  0  0  0  0  0  0  0  0  0  0
    3.5207    0.0000    0.0000 F   0  0  0  0  0  0  0  0  0  0  0  0
    1.9616    2.5651    0.0000 C   0  0  0  0  0  0  0  0  0  0  0  0
    1.5089    1.7101    0.0000 C   0  0  0  0  0  0  0  0  0  0  0  0
    0.5030    1.7101    0.0000 C   0  0  0  0  0  0  0  0  0  0  0  0
    0.0000    2.5651    0.0000 O   0  0  0  0  0  0  0  0  0  0  0  0
  2  1  2  0  0  0  0 
  1  3  1  0  0  0  0 
  4  2  1  0  0  0  0 
  2  5  1  0  0  0  0 
  3  6  2  0  0  0  0 
  7  4  2  0  0  0  0 
  6  7  1  0  0  0  0 
  7  8  1  0  0  0  0 
  8  9  2  0  0  0  0 
M  END
> <Name>
Benzaldehyde, m-fluoro- (8CI)

> <Source>
NIST2DMolFile

> <Tox>
3.154

> <CAS>
456-48-4

$$$$

  CDK

  8  8  0  0  0  0  0  0  0  0999 V2000
    1.1534   -1.3288    0.0000 C   0  0  0  0  0  0  0  0  0  0  0  0
    2.3069   -1.9826    0.0000 C   0  0  0  0  0  0  0  0  0  0  0  0
    0.0000   -1.9826    0.0000 C   0  0  0  0  0  0  0  0  0  0  0  0
    1.1534   -0.0000    0.0000 Br  0  0  0  0  0  0  0  0  0  0  0  0
    2.3069   -3.3115    0.0000 C   0  0  0  0  0  0  0  0  0  0  0  0
    0.0000   -3.3115    0.0000 C   0  0  0  0  0  0  0  0  0  0  0  0
    1.1534   -3.9865    0.0000 C   0  0  0  0  0  0  0  0  0  0  0  0
    1.1534   -5.3154    0.0000 F   0  0  0  0  0  0  0  0  0  0  0  0
  1  2  2  0  0  0  0 
  1  3  1  0  0  0  0 
  1  4  1  0  0  0  0 
  2  5  1  0  0  0  0 
  6  3  2  0  0  0  0 
  5  7  2  0  0  0  0 
  7  6  1  0  0  0  0 
  7  8  1  0  0  0  0 
M  END
> <Name>
Benzene, 1-bromo-4-fluoro-

> <Source>
DSSTox2DMolFile

> <Tox>
3.110

> <CAS>
460-00-4

$$$$

  CDK

  5  4  0  0  0  0  0  0  0  0999 V2000
    0.0000    0.7687    0.0000 C   0  0  0  0  0  0  0  0  0  0  0  0
    1.0762    0.7687    0.0000 C   0  0  0  0  0  0  0  0  0  0  0  0
    2.1523    0.7687    0.0000 C   0  0  0  0  0  0  0  0  0  0  0  0
    2.6648    1.5374    0.0000 O   0  0  0  0  0  0  0  0  0  0  0  0
    2.6648    0.0000    0.0000 O   0  0  0  0  0  0  0  0  0  0  0  0
  1  2  3  0  0  0  0 
  2  3  1  0  0  0  0 
  3  4  1  0  0  0  0 
  3  5  2  0  0  0  0 
M  END
> <Name>
2-Propynoic acid

> <Source>
NIST2DMolFile

> <Tox>
2.706

> <CAS>
471-25-0

$$$$

  CDK

  9  9  0  0  0  0  0  0  0  0999 V2000
    1.7493    2.9988    0.0000 O   0  0  0  0  0  0  0  0  0  0  0  0
    1.7493    1.9992    0.0000 C   0  0  0  0  0  0  0  0  0  0  0  0
    0.8996    1.4994    0.0000 C   0  0  0  0  0  0  0  0  0  0  0  0
    2.5989    1.4994    0.0000 C   0  0  0  0  0  0  0  0  0  0  0  0
    0.0000    1.9992    0.0000 C   0  0  0  0  0  0  0  0  0  0  0  0
    0.8996    0.4998    0.0000 C   0  0  0  0  0  0  0  0  0  0  0  0
    3.4985    1.9992    0.0000 O   0  0  0  0  0  0  0  0  0  0  0  0
    2.5989    0.4998    0.0000 C   0  0  0  0  0  0  0  0  0  0  0  0
    1.7493    0.0000    0.0000 C   0  0  0  0  0  0  0  0  0  0  0  0
  1  2  1  0  0  0  0 
  3  2  2  0  0  0  0 
  2  4  1  0  0  0  0 
  3  5  1  0  0  0  0 
  6  3  1  0  0  0  0 
  4  7  1  0  0  0  0 
  4  8  2  0  0  0  0 
  9  6  2  0  0  0  0 
  8  9  1  0  0  0  0 
M  END
> <Name>
1,2-Benzenediol, 3-methyl-

> <Source>
NIST2DMolFile

> <Tox>
3.280

> <CAS>
488-17-5

$$$$

  CDK

 12 12  0  0  0  0  0  0  0  0999 V2000
    4.3577   -2.4038   -0.3848 Br  0  0  0  0  0  0  0  0  0  0  0  0
    2.9348   -1.6038    0.6137 C   0  0  0  0  0  0  0  0  0  0  0  0
    1.8846   -1.0376   -0.1090 C   0  0  0  0  0  0  0  0  0  0  0  0
    2.9180   -1.5734    2.0082 C   0  0  0  0  0  0  0  0  0  0  0  0
    1.8738   -1.0518   -1.4745 O   0  0  0  0  0  0  0  0  0  0  0  0
    0.8176   -0.4410    0.5626 C   0  0  0  0  0  0  0  0  0  0  0  0
    4.3731   -2.3571    2.9883 Br  0  0  0  0  0  0  0  0  0  0  0  0
    1.8509   -0.9767    2.6799 C   0  0  0  0  0  0  0  0  0  0  0  0
   -0.1956    0.1057   -0.1718 O   0  0  0  0  0  0  0  0  0  0  0  0
    0.8008   -0.4105    1.9570 C   0  0  0  0  0  0  0  0  0  0  0  0
    1.8140   -0.9218    4.6003 Br  0  0  0  0  0  0  0  0  0  0  0  0
   -0.6989    0.4281    2.7995 Br  0  0  0  0  0  0  0  0  0  0  0  0
  1  2  1  0  0  0  0 
  3  2  1  0  0  0  0 
  2  4  2  0  0  0  0 
  5  3  1  0  0  0  0 
  3  6  2  0  0  0  0 
  7  4  1  0  0  0  0 
  4  8  1  0  0  0  0 
  9  6  1  0  0  0  0 
  6 10  1  0  0  0  0 
 11  8  1  0  0  0  0 
 10  8  2  0  0  0  0 
 12 10  1  0  0  0  0 
M  END
> <Name>
1,2-Benzenediol, 3,4,5,6-tetrabromo- (9CI)

> <Source>
Chemidplus3DMolFile

> <Tox>
3.980

> <CAS>
488-47-1

$$$$

  CDK

 11 11  0  0  0  0  0  0  0  0999 V2000
    0.0000    1.4225    0.0000 C   0  0  0  0  0  0  0  0  0  0  0  0
    0.9145    1.9305    0.0000 C   0  0  0  0  0  0  0  0  0  0  0  0
    1.7781    1.4225    0.0000 C   0  0  0  0  0  0  0  0  0  0  0  0
    2.6926    1.9305    0.0000 C   0  0  0  0  0  0  0  0  0  0  0  0
    2.6926    2.9974    0.0000 O   0  0  0  0  0  0  0  0  0  0  0  0
    3.5562    1.4225    0.0000 C   0  0  0  0  0  0  0  0  0  0  0  0
    4.4199    1.9305    0.0000 C   0  0  0  0  0  0  0  0  0  0  0  0
    3.5562    0.5080    0.0000 C   0  0  0  0  0  0  0  0  0  0  0  0
    5.2836    1.4225    0.0000 C   0  0  0  0  0  0  0  0  0  0  0  0
    4.4199    0.0000    0.0000 C   0  0  0  0  0  0  0  0  0  0  0  0
    5.2836    0.5080    0.0000 C   0  0  0  0  0  0  0  0  0  0  0  0
  1  2  1  0  0  0  0 
  2  3  1  0  0  0  0 
  3  4  1  0  0  0  0 
  4  5  2  0  0  0  0 
  4  6  1  0  0  0  0 
  6  7  2  0  0  0  0 
  8  6  1  0  0  0  0 
  7  9  1  0  0  0  0 
 10  8  2  0  0  0  0 
  9 11  2  0  0  0  0 
 11 10  1  0  0  0  0 
M  END
> <Name>
1-Butanone, 1-phenyl-

> <Source>
NIST2DMolFile

> <Tox>
3.210

> <CAS>
495-40-9

$$$$

  CDK

 11 11  0  0  0  0  0  0  0  0999 V2000
    2.9994    0.8642    0.0000 C   0  0  0  0  0  0  0  0  0  0  0  0
    2.0335    0.8642    0.0000 C   0  0  0  0  0  0  0  0  0  0  0  0
    3.5078    1.7285    0.0000 C   0  0  0  0  0  0  0  0  0  0  0  0
    3.5078    0.0000    0.0000 O   0  0  0  0  0  0  0  0  0  0  0  0
    1.5251    1.7285    0.0000 C   0  0  0  0  0  0  0  0  0  0  0  0
    2.9486    2.5927    0.0000 C   0  0  0  0  0  0  0  0  0  0  0  0
    4.5245    1.7285    0.0000 O   0  0  0  0  0  0  0  0  0  0  0  0
    4.5245    0.0000    0.0000 C   0  0  0  0  0  0  0  0  0  0  0  0
    1.9827    2.5927    0.0000 C   0  0  0  0  0  0  0  0  0  0  0  0
    0.5084    1.7285    0.0000 C   0  0  0  0  0  0  0  0  0  0  0  0
    0.0000    0.8642    0.0000 O   0  0  0  0  0  0  0  0  0  0  0  0
  2  1  2  0  0  0  0 
  1  3  1  0  0  0  0 
  1  4  1  0  0  0  0 
  5  2  1  0  0  0  0 
  3  6  2  0  0  0  0 
  3  7  1  0  0  0  0 
  4  8  1  0  0  0  0 
  9  5  2  0  0  0  0 
  5 10  1  0  0  0  0 
  6  9  1  0  0  0  0 
 10 11  1  0  0  0  0 
M  END
> <Name>
Benzenemethanol, 4-hydroxy-3-methoxy-

> <Source>
NIST2DMolFile

> <Tox>
2.300

> <CAS>
498-00-0

$$$$

  CDK

 13 13  0  0  0  0  0  0  0  0999 V2000
    0.0000   -3.9917    0.0000 C   0  0  0  0  0  0  0  0  0  0  0  0
    1.1523   -3.3280    0.0000 C   0  0  0  0  0  0  0  0  0  0  0  0
    2.3047   -3.9917    0.0000 C   0  0  0  0  0  0  0  0  0  0  0  0
    3.4570   -3.3280    0.0000 C   0  0  0  0  0  0  0  0  0  0  0  0
    4.6093   -3.9917    0.0000 C   0  0  0  0  0  0  0  0  0  0  0  0
    5.7617   -3.3280    0.0000 C   0  0  0  0  0  0  0  0  0  0  0  0
    5.7617   -2.0005    0.0000 C   0  0  0  0  0  0  0  0  0  0  0  0
    6.9140   -3.9917    0.0000 C   0  0  0  0  0  0  0  0  0  0  0  0
    6.9140   -1.3275    0.0000 C   0  0  0  0  0  0  0  0  0  0  0  0
    8.0664   -3.3280    0.0000 C   0  0  0  0  0  0  0  0  0  0  0  0
    6.9140   -0.0000    0.0000 O   0  0  0  0  0  0  0  0  0  0  0  0
    8.0664   -2.0005    0.0000 C   0  0  0  0  0  0  0  0  0  0  0  0
    9.2187   -3.9917    0.0000 O   0  0  0  0  0  0  0  0  0  0  0  0
  1  2  1  0  0  0  0 
  2  3  1  0  0  0  0 
  3  4  1  0  0  0  0 
  4  5  1  0  0  0  0 
  5  6  1  0  0  0  0 
  6  7  2  0  0  0  0 
  6  8  1  0  0  0  0 
  7  9  1  0  0  0  0 
 10  8  2  0  0  0  0 
  9 11  1  0  0  0  0 
  9 12  2  0  0  0  0 
 12 10  1  0  0  0  0 
 10 13  1  0  0  0  0 
M  END
> <Name>
1,3-Benzenediol, 5-pentyl- (9CI)

> <Source>
DSSTox2DMolFile

> <Tox>
4.310

> <CAS>
500-66-3

$$$$

  CDK

 11 11  0  0  0  0  0  0  0  0999 V2000
    0.0000    0.9008    0.0000 C   0  0  0  0  0  0  0  0  0  0  0  0
    0.5005    1.7516    0.0000 O   0  0  0  0  0  0  0  0  0  0  0  0
    1.5014    1.7516    0.0000 C   0  0  0  0  0  0  0  0  0  0  0  0
    2.0018    2.6024    0.0000 C   0  0  0  0  0  0  0  0  0  0  0  0
    2.0018    0.9008    0.0000 C   0  0  0  0  0  0  0  0  0  0  0  0
    3.0028    2.6024    0.0000 C   0  0  0  0  0  0  0  0  0  0  0  0
    3.0028    0.9008    0.0000 C   0  0  0  0  0  0  0  0  0  0  0  0
    3.5032    3.5032    0.0000 O   0  0  0  0  0  0  0  0  0  0  0  0
    3.5032    1.7516    0.0000 C   0  0  0  0  0  0  0  0  0  0  0  0
    3.5032    0.0000    0.0000 O   0  0  0  0  0  0  0  0  0  0  0  0
    4.5041    3.5032    0.0000 C   0  0  0  0  0  0  0  0  0  0  0  0
  1  2  1  0  0  0  0 
  2  3  1  0  0  0  0 
  4  3  2  0  0  0  0 
  3  5  1  0  0  0  0 
  6  4  1  0  0  0  0 
  5  7  2  0  0  0  0 
  6  8  1  0  0  0  0 
  9  6  2  0  0  0  0 
  7  9  1  0  0  0  0 
  7 10  1  0  0  0  0 
  8 11  1  0  0  0  0 
M  END
> <Name>
Phenol, 3,5-dimethoxy- (8CI)(9CI)

> <Source>
NIST2DMolFile

> <Tox>
2.910

> <CAS>
500-99-2

$$$$

  CDK

 10  9  0  0  0  0  0  0  0  0999 V2000
    8.0686   -0.0000    0.0000 C   0  0  0  0  0  0  0  0  0  0  0  0
    6.9148   -0.6697    0.0000 C   0  0  0  0  0  0  0  0  0  0  0  0
    6.9148   -2.0010    0.0000 C   0  0  0  0  0  0  0  0  0  0  0  0
    5.7610   -2.6626    0.0000 C   0  0  0  0  0  0  0  0  0  0  0  0
    4.6072   -2.0010    0.0000 C   0  0  0  0  0  0  0  0  0  0  0  0
    4.6072   -0.6697    0.0000 O   0  0  0  0  0  0  0  0  0  0  0  0
    3.4614   -2.6626    0.0000 C   0  0  0  0  0  0  0  0  0  0  0  0
    2.3076   -2.0010    0.0000 C   0  0  0  0  0  0  0  0  0  0  0  0
    1.1538   -2.6626    0.0000 C   0  0  0  0  0  0  0  0  0  0  0  0
    0.0000   -2.0010    0.0000 C   0  0  0  0  0  0  0  0  0  0  0  0
  1  2  1  0  0  0  0 
  2  3  1  0  0  0  0 
  3  4  1  0  0  0  0 
  4  5  1  0  0  0  0 
  5  6  2  0  0  0  0 
  5  7  1  0  0  0  0 
  7  8  1  0  0  0  0 
  8  9  1  0  0  0  0 
  9 10  1  0  0  0  0 
M  END
> <Name>
5-Nonanone

> <Source>
DSSTox2DMolFile

> <Tox>
3.074

> <CAS>
502-56-7

$$$$

  CDK

  9  9  0  0  0  0  0  0  0  0999 V2000
   -0.9475    1.0012    0.0000 C   0  0  0  0  0  0  0  0  0  0  0  0
   -1.3557   -0.3382    0.0003 C   0  0  0  0  0  0  0  0  0  0  0  0
    0.4076    1.3513   -0.0009 C   0  0  0  0  0  0  0  0  0  0  0  0
   -1.9521    1.9293    0.0004 O   0  0  0  0  0  0  0  0  0  0  0  0
   -0.3642   -1.3249    0.0000 C   0  0  0  0  0  0  0  0  0  0  0  0
    1.3756    0.3449   -0.0011 C   0  0  0  0  0  0  0  0  0  0  0  0
    0.9993   -0.9954   -0.0008 C   0  0  0  0  0  0  0  0  0  0  0  0
   -0.6555   -2.6606    0.0002 O   0  0  0  0  0  0  0  0  0  0  0  0
    2.8134    0.7213    0.0010 C   0  0  0  0  0  0  0  0  0  0  0  0
  1  2  1  0  0  0  0 
  1  3  2  0  0  0  0 
  1  4  1  0  0  0  0 
  2  5  2  0  0  0  0 
  6  3  1  0  0  0  0 
  5  7  1  0  0  0  0 
  5  8  1  0  0  0  0 
  7  6  2  0  0  0  0 
  6  9  1  0  0  0  0 
M  END
> <Name>
1,3-Benzenediol, 5-methyl-

> <Source>
DougDB3DMolFile

> <Tox>
2.610

> <CAS>
504-15-4

$$$$

  CDK

  9  9  0  0  0  0  0  0  0  0999 V2000
    0.0000   -2.3037    0.0000 C   0  0  0  0  0  0  0  0  0  0  0  0
    1.3315   -2.3037    0.0000 C   0  0  0  0  0  0  0  0  0  0  0  0
    1.9950   -1.1518    0.0000 C   0  0  0  0  0  0  0  0  0  0  0  0
    1.9950   -3.4555    0.0000 C   0  0  0  0  0  0  0  0  0  0  0  0
    1.3315   -0.0000    0.0000 C   0  0  0  0  0  0  0  0  0  0  0  0
    3.3265   -1.1518    0.0000 C   0  0  0  0  0  0  0  0  0  0  0  0
    3.3265   -3.4555    0.0000 C   0  0  0  0  0  0  0  0  0  0  0  0
    1.3315   -4.6073    0.0000 O   0  0  0  0  0  0  0  0  0  0  0  0
    3.9899   -2.3037    0.0000 C   0  0  0  0  0  0  0  0  0  0  0  0
  1  2  1  0  0  0  0 
  2  3  2  0  0  0  0 
  2  4  1  0  0  0  0 
  3  5  1  0  0  0  0 
  3  6  1  0  0  0  0 
  7  4  2  0  0  0  0 
  4  8  1  0  0  0  0 
  6  9  2  0  0  0  0 
  9  7  1  0  0  0  0 
M  END
> <Name>
Phenol, 2,3-dimethyl-

> <Source>
DSSTox2DMolFile

> <Tox>
3.120

> <CAS>
526-75-0

$$$$

  CDK

 10 10  0  0  0  0  0  0  0  0999 V2000
    0.0000    1.7493    0.0000 C   0  0  0  0  0  0  0  0  0  0  0  0
    0.9996    1.7493    0.0000 C   0  0  0  0  0  0  0  0  0  0  0  0
    1.4994    2.5990    0.0000 C   0  0  0  0  0  0  0  0  0  0  0  0
    1.4994    0.8997    0.0000 C   0  0  0  0  0  0  0  0  0  0  0  0
    0.9996    3.4987    0.0000 C   0  0  0  0  0  0  0  0  0  0  0  0
    2.4991    2.5990    0.0000 C   0  0  0  0  0  0  0  0  0  0  0  0
    0.9996    0.0000    0.0000 C   0  0  0  0  0  0  0  0  0  0  0  0
    2.4991    0.8997    0.0000 C   0  0  0  0  0  0  0  0  0  0  0  0
    2.9989    1.7493    0.0000 C   0  0  0  0  0  0  0  0  0  0  0  0
    3.9985    1.7493    0.0000 O   0  0  0  0  0  0  0  0  0  0  0  0
  1  2  1  0  0  0  0 
  3  2  2  0  0  0  0 
  2  4  1  0  0  0  0 
  3  5  1  0  0  0  0 
  6  3  1  0  0  0  0 
  4  7  1  0  0  0  0 
  4  8  2  0  0  0  0 
  9  6  2  0  0  0  0 
  8  9  1  0  0  0  0 
  9 10  1  0  0  0  0 
M  END
> <Name>
Phenol, 3,4,5-trimethyl-

> <Source>
NIST2DMolFile

> <Tox>
3.930

> <CAS>
527-54-8

$$$$

  CDK

 10 10  0  0  0  0  0  0  0  0999 V2000
    1.9971   -0.0000    0.0000 C   0  0  0  0  0  0  0  0  0  0  0  0
    2.6582   -1.1499    0.0000 C   0  0  0  0  0  0  0  0  0  0  0  0
    3.9896   -1.1499    0.0000 C   0  0  0  0  0  0  0  0  0  0  0  0
    1.9971   -2.3044    0.0000 C   0  0  0  0  0  0  0  0  0  0  0  0
    4.6553   -2.3044    0.0000 C   0  0  0  0  0  0  0  0  0  0  0  0
    2.6582   -3.4542    0.0000 C   0  0  0  0  0  0  0  0  0  0  0  0
    0.6657   -2.3044    0.0000 C   0  0  0  0  0  0  0  0  0  0  0  0
    3.9896   -3.4542    0.0000 C   0  0  0  0  0  0  0  0  0  0  0  0
    0.0000   -3.4542    0.0000 N   0  0  0  0  0  0  0  0  0  0  0  0
    0.0000   -1.1499    0.0000 O   0  0  0  0  0  0  0  0  0  0  0  0
  1  2  1  0  0  0  0 
  2  3  2  0  0  0  0 
  2  4  1  0  0  0  0 
  3  5  1  0  0  0  0 
  6  4  2  0  0  0  0 
  4  7  1  0  0  0  0 
  5  8  2  0  0  0  0 
  8  6  1  0  0  0  0 
  7  9  1  0  0  0  0 
  7 10  2  0  0  0  0 
M  END
> <Name>
Benzamide, 2-methyl-

> <Source>
DSSTox2DMolFile

> <Tox>
2.050

> <CAS>
527-85-5

$$$$

  CDK

  9  9  0  0  0  0  0  0  0  0999 V2000
    1.9976   -2.3049    0.0000 C   0  0  0  0  0  0  0  0  0  0  0  0
    0.6659   -2.3049    0.0000 C   0  0  0  0  0  0  0  0  0  0  0  0
    2.6588   -1.1501    0.0000 C   0  0  0  0  0  0  0  0  0  0  0  0
    2.6588   -3.4550    0.0000 C   0  0  0  0  0  0  0  0  0  0  0  0
    0.0000   -3.4550    0.0000 O   0  0  0  0  0  0  0  0  0  0  0  0
    1.9976   -0.0000    0.0000 C   0  0  0  0  0  0  0  0  0  0  0  0
    3.9905   -1.1501    0.0000 C   0  0  0  0  0  0  0  0  0  0  0  0
    3.9905   -3.4550    0.0000 C   0  0  0  0  0  0  0  0  0  0  0  0
    4.6563   -2.3049    0.0000 C   0  0  0  0  0  0  0  0  0  0  0  0
  1  2  1  0  0  0  0 
  1  3  2  0  0  0  0 
  1  4  1  0  0  0  0 
  2  5  2  0  0  0  0 
  3  6  1  0  0  0  0 
  3  7  1  0  0  0  0 
  8  4  2  0  0  0  0 
  7  9  2  0  0  0  0 
  9  8  1  0  0  0  0 
M  END
> <Name>
o-Tolualdehyde (8CI)

> <Source>
DSSTox2DMolFile

> <Tox>
3.011

> <CAS>
529-20-4

$$$$

  CDK

 11 11  0  0  0  0  0  0  0  0999 V2000
    0.0000   -2.3022    0.0000 C   0  0  0  0  0  0  0  0  0  0  0  0
    0.6654   -1.1511    0.0000 C   0  0  0  0  0  0  0  0  0  0  0  0
    1.9961   -1.1511    0.0000 C   0  0  0  0  0  0  0  0  0  0  0  0
    0.0000   -0.0000    0.0000 C   0  0  0  0  0  0  0  0  0  0  0  0
    2.6615   -0.0000    0.0000 C   0  0  0  0  0  0  0  0  0  0  0  0
    2.6615   -2.3022    0.0000 C   0  0  0  0  0  0  0  0  0  0  0  0
    3.9923   -0.0000    0.0000 C   0  0  0  0  0  0  0  0  0  0  0  0
    3.9923   -2.3022    0.0000 C   0  0  0  0  0  0  0  0  0  0  0  0
    4.6576   -1.1511    0.0000 C   0  0  0  0  0  0  0  0  0  0  0  0
    5.9884   -1.1511    0.0000 C   0  0  0  0  0  0  0  0  0  0  0  0
    6.6538   -0.0000    0.0000 O   0  0  0  0  0  0  0  0  0  0  0  0
  1  2  1  0  0  0  0 
  2  3  1  0  0  0  0 
  2  4  1  0  0  0  0 
  3  5  2  0  0  0  0 
  3  6  1  0  0  0  0 
  5  7  1  0  0  0  0 
  8  6  2  0  0  0  0 
  7  9  2  0  0  0  0 
  9  8  1  0  0  0  0 
  9 10  1  0  0  0  0 
 10 11  1  0  0  0  0 
M  END
> <Name>
Benzenemethanol, 4-(1-methylethyl)-

> <Source>
DSSTox2DMolFile

> <Tox>
3.180

> <CAS>
536-60-7

$$$$

  CDK

  8  8  0  0  0  0  0  0  0  0999 V2000
    0.0000    1.4432    0.0000 C   0  0  0  0  0  0  0  0  0  0  0  0
    0.9278    1.9587    0.0000 C   0  0  0  0  0  0  0  0  0  0  0  0
    1.8040    1.4432    0.0000 C   0  0  0  0  0  0  0  0  0  0  0  0
    2.6803    1.9587    0.0000 C   0  0  0  0  0  0  0  0  0  0  0  0
    1.8040    0.5154    0.0000 C   0  0  0  0  0  0  0  0  0  0  0  0
    3.5565    1.4432    0.0000 C   0  0  0  0  0  0  0  0  0  0  0  0
    2.6803    0.0000    0.0000 C   0  0  0  0  0  0  0  0  0  0  0  0
    3.5565    0.5154    0.0000 N   0  0  0  0  0  0  0  0  0  0  0  0
  1  2  1  0  0  0  0 
  2  3  1  0  0  0  0 
  3  4  2  0  0  0  0 
  5  3  1  0  0  0  0 
  4  6  1  0  0  0  0 
  7  5  2  0  0  0  0 
  6  8  2  0  0  0  0 
  8  7  1  0  0  0  0 
M  END
> <Name>
4-ethylpyridine

> <Source>
NIST2DMolFile

> <Tox>
2.540

> <CAS>
536-75-4

$$$$

  CDK

  8  8  0  0  0  0  0  0  0  0999 V2000
    0.0000    0.8559    0.0000 I   0  0  0  0  0  0  0  0  0  0  0  0
    1.0070    0.8559    0.0000 C   0  0  0  0  0  0  0  0  0  0  0  0
    1.5105    1.7119    0.0000 C   0  0  0  0  0  0  0  0  0  0  0  0
    1.5105    0.0000    0.0000 C   0  0  0  0  0  0  0  0  0  0  0  0
    2.5174    1.7119    0.0000 C   0  0  0  0  0  0  0  0  0  0  0  0
    2.5174    0.0000    0.0000 C   0  0  0  0  0  0  0  0  0  0  0  0
    3.0209    0.8559    0.0000 C   0  0  0  0  0  0  0  0  0  0  0  0
    4.0279    0.8559    0.0000 O   0  0  0  0  0  0  0  0  0  0  0  0
  1  2  1  0  0  0  0 
  3  2  2  0  0  0  0 
  2  4  1  0  0  0  0 
  5  3  1  0  0  0  0 
  4  6  2  0  0  0  0 
  7  5  2  0  0  0  0 
  6  7  1  0  0  0  0 
  7  8  1  0  0  0  0 
M  END
> <Name>
Phenol, 4-iodo-

> <Source>
NIST2DMolFile

> <Tox>
3.850

> <CAS>
540-38-5

$$$$

  CDK

  6  5  0  0  0  0  0  0  0  0999 V2000
    1.9788    2.5717    1.9671 C   0  0  0  0  0  0  0  0  0  0  0  0
    1.0533    1.3763    2.0620 C   0  0  0  0  0  0  0  0  0  0  0  0
    3.4323    2.1239    1.9185 C   0  0  0  0  0  0  0  0  0  0  0  0
    0.5998    0.7889    0.8795 N   0  0  0  0  0  0  0  0  0  0  0  0
    0.6607    0.8762    3.1105 O   0  0  0  0  0  0  0  0  0  0  0  0
    4.3666    3.3112    1.8551 C   0  0  0  0  0  0  0  0  0  0  0  0
  1  2  1  0  0  0  0 
  1  3  1  0  0  0  0 
  2  4  1  0  0  0  0 
  2  5  2  0  0  0  0 
  3  6  1  0  0  0  0 
M  END
> <Name>
butanamide

> <Source>
NIST3DMolFile

> <Tox>
1.215

> <CAS>
541-35-5

$$$$

  CDK

  5  4  0  0  0  0  0  0  0  0999 V2000
    0.8930    0.0000    0.0000 C   0  0  0  0  0  0  0  0  0  0  0  0
    1.7364    0.4961    0.0000 C   0  0  0  0  0  0  0  0  0  0  0  0
    0.0000    0.4961    0.0000 C   0  0  0  0  0  0  0  0  0  0  0  0
    2.5797    0.0000    0.0000 C   0  0  0  0  0  0  0  0  0  0  0  0
    3.4727    0.4961    0.0000 I   0  0  0  0  0  0  0  0  0  0  0  0
  1  2  1  0  0  0  0 
  1  3  1  0  0  0  0 
  2  4  1  0  0  0  0 
  4  5  1  0  0  0  0 
M  END
> <Name>
1-iodobutane

> <Source>
NIST2DMolFile

> <Tox>
3.300

> <CAS>
542-69-8

$$$$

  CDK

  5  4  0  0  0  0  0  0  0  0999 V2000
    3.3210   -1.1535    0.0000 C   0  0  0  0  0  0  0  0  0  0  0  0
    4.6513   -1.1535    0.0000 N   0  0  0  0  0  0  0  0  0  0  0  0
    1.9907   -1.1535    0.0000 C   0  0  0  0  0  0  0  0  0  0  0  0
    1.3303   -0.0000    0.0000 C   0  0  0  0  0  0  0  0  0  0  0  0
    0.0000   -0.0000    0.0000 Cl  0  0  0  0  0  0  0  0  0  0  0  0
  1  2  3  0  0  0  0 
  1  3  1  0  0  0  0 
  3  4  1  0  0  0  0 
  4  5  1  0  0  0  0 
M  END
> <Name>
Propanenitrile, 3-chloro-

> <Source>
DSSTox2DMolFile

> <Tox>
2.001

> <CAS>
542-76-7

$$$$

  CDK

  6  5  0  0  0  0  0  0  0  0999 V2000
    3.1981    1.9337    3.7459 C   0  0  0  0  0  0  0  0  0  0  0  0
    2.8751    1.5570    2.3093 C   0  0  0  0  0  0  0  0  0  0  0  0
    4.6754    2.1761    3.9454 C   0  0  0  0  0  0  0  0  0  0  0  0
    1.3916    1.2787    2.1296 C   0  0  0  0  0  0  0  0  0  0  0  0
    5.5610    0.6391    3.7652 Cl  0  0  0  0  0  0  0  0  0  0  0  0
    1.0707    0.9002    0.7015 C   0  0  0  0  0  0  0  0  0  0  0  0
  1  2  1  0  0  0  0 
  1  3  1  0  0  0  0 
  2  4  1  0  0  0  0 
  3  5  1  0  0  0  0 
  4  6  1  0  0  0  0 
M  END
> <Name>
1-chloropentane

> <Source>
NIST3DMolFile

> <Tox>
3.170

> <CAS>
543-59-9

$$$$

  CDK

  9  8  0  0  0  0  0  0  0  0999 V2000
    0.0000   -0.6638    0.0000 C   0  0  0  0  0  0  0  0  0  0  0  0
    1.1525   -0.0000    0.0000 C   0  0  0  0  0  0  0  0  0  0  0  0
    2.3050   -0.6638    0.0000 C   0  0  0  0  0  0  0  0  0  0  0  0
    3.4575   -0.0000    0.0000 C   0  0  0  0  0  0  0  0  0  0  0  0
    4.6099   -0.6638    0.0000 S   0  0  0  0  0  0  0  0  0  0  0  0
    5.7624   -0.0000    0.0000 C   0  0  0  0  0  0  0  0  0  0  0  0
    6.9149   -0.6638    0.0000 C   0  0  0  0  0  0  0  0  0  0  0  0
    8.0674   -0.0000    0.0000 C   0  0  0  0  0  0  0  0  0  0  0  0
    9.2199   -0.6638    0.0000 C   0  0  0  0  0  0  0  0  0  0  0  0
  1  2  1  0  0  0  0 
  2  3  1  0  0  0  0 
  3  4  1  0  0  0  0 
  4  5  1  0  0  0  0 
  5  6  1  0  0  0  0 
  6  7  1  0  0  0  0 
  7  8  1  0  0  0  0 
  8  9  1  0  0  0  0 
M  END
> <Name>
Butane, 1,1'-thiobis-

> <Source>
DSSTox2DMolFile

> <Tox>
4.040

> <CAS>
544-40-1

$$$$

  CDK

 11 11  0  0  0  0  0  0  0  0999 V2000
    0.0497    0.8454    0.0000 O   0  0  0  0  0  0  0  0  0  0  0  0
    0.4973    1.7405    0.0000 N   0  0  0  0  0  0  0  0  0  0  0  0
    0.0000    2.5859    0.0000 O   0  0  0  0  0  0  0  0  0  0  0  0
    1.5416    1.7405    0.0000 C   0  0  0  0  0  0  0  0  0  0  0  0
    2.0389    0.8454    0.0000 C   0  0  0  0  0  0  0  0  0  0  0  0
    2.0389    2.5859    0.0000 C   0  0  0  0  0  0  0  0  0  0  0  0
    3.0335    0.8454    0.0000 C   0  0  0  0  0  0  0  0  0  0  0  0
    3.0335    2.5859    0.0000 C   0  0  0  0  0  0  0  0  0  0  0  0
    3.5307    0.0000    0.0000 O   0  0  0  0  0  0  0  0  0  0  0  0
    3.5307    1.7405    0.0000 C   0  0  0  0  0  0  0  0  0  0  0  0
    4.5253    0.0000    0.0000 C   0  0  0  0  0  0  0  0  0  0  0  0
  1  2  2  0  0  0  0 
  2  3  2  0  0  0  0 
  2  4  1  0  0  0  0 
  4  5  2  0  0  0  0 
  6  4  1  0  0  0  0 
  5  7  1  0  0  0  0 
  8  6  2  0  0  0  0 
  7  9  1  0  0  0  0 
  7 10  2  0  0  0  0 
 10  8  1  0  0  0  0 
  9 11  1  0  0  0  0 
M  END
> <Name>
Anisole, m-nitro- (8CI)

> <Source>
NIST2DMolFile

> <Tox>
3.720

> <CAS>
555-03-3

$$$$

  CDK

  6  5  0  0  0  0  0  0  0  0999 V2000
    3.4538    2.2482    2.2705 C   0  0  0  0  0  0  0  0  0  0  0  0
    4.2636    3.3353    1.9353 N   0  0  0  0  0  0  0  0  0  0  0  0
    3.9380    1.4311    3.0459 O   0  0  0  0  0  0  0  0  0  0  0  0
    2.0594    2.1651    1.6576 C   0  0  0  0  0  0  0  0  0  0  0  0
    1.9426    0.9046    0.8167 C   0  0  0  0  0  0  0  0  0  0  0  0
    1.0122    2.1816    2.7590 C   0  0  0  0  0  0  0  0  0  0  0  0
  1  2  1  0  0  0  0 
  1  3  2  0  0  0  0 
  1  4  1  0  0  0  0 
  4  5  1  0  0  0  0 
  4  6  1  0  0  0  0 
M  END
> <Name>
2-methylpropanamide

> <Source>
NIST3DMolFile

> <Tox>
1.120

> <CAS>
563-83-7

$$$$

  CDK

  7  6  0  0  0  0  0  0  0  0999 V2000
   -2.0498    0.7469   -0.0017 O   0  0  0  0  0  0  0  0  0  0  0  0
   -1.1709   -0.1174   -0.0006 C   0  0  0  0  0  0  0  0  0  0  0  0
    0.2836    0.2860    0.0003 C   0  0  0  0  0  0  0  0  0  0  0  0
   -1.5521   -1.5777    0.0007 C   0  0  0  0  0  0  0  0  0  0  0  0
    1.2445   -0.6558    0.0022 C   0  0  0  0  0  0  0  0  0  0  0  0
    0.5172    1.7711    0.0015 C   0  0  0  0  0  0  0  0  0  0  0  0
    2.7275   -0.4532   -0.0024 C   0  0  0  0  0  0  0  0  0  0  0  0
  1  2  2  0  0  0  0 
  3  2  1  0  0  0  0 
  2  4  1  0  0  0  0 
  3  5  2  0  0  0  0 
  3  6  1  0  0  0  0 
  5  7  1  0  0  0  0 
M  END
> <Name>
(E)-3-methylpent-3-en-2-one

> <Source>
Chemidplus3DMolFile

> <Tox>
2.660

> <CAS>
565-62-8

$$$$

  CDK

 13 13  0  0  0  0  0  0  0  0999 V2000
    3.4548   -3.9869    0.0000 O   0  0  0  0  0  0  0  0  0  0  0  0
    3.4548   -2.6602    0.0000 C   0  0  0  0  0  0  0  0  0  0  0  0
    2.3009   -1.9900    0.0000 C   0  0  0  0  0  0  0  0  0  0  0  0
    4.6088   -1.9900    0.0000 C   0  0  0  0  0  0  0  0  0  0  0  0
    1.1539   -2.6602    0.0000 N   0  0  0  0  0  0  0  0  0  0  0  0
    2.3009   -0.6633    0.0000 C   0  0  0  0  0  0  0  0  0  0  0  0
    4.6088   -0.6633    0.0000 C   0  0  0  0  0  0  0  0  0  0  0  0
    5.7558   -2.6602    0.0000 N   0  0  0  0  0  0  0  0  0  0  0  0
    0.0000   -1.9900    0.0000 O   0  0  0  0  0  0  0  0  0  0  0  0
    1.1539   -3.9869    0.0000 O   0  0  0  0  0  0  0  0  0  0  0  0
    3.4548   -0.0000    0.0000 C   0  0  0  0  0  0  0  0  0  0  0  0
    6.9097   -1.9900    0.0000 O   0  0  0  0  0  0  0  0  0  0  0  0
    5.7558   -3.9869    0.0000 O   0  0  0  0  0  0  0  0  0  0  0  0
  1  2  1  0  0  0  0 
  2  3  2  0  0  0  0 
  2  4  1  0  0  0  0 
  3  5  1  0  0  0  0 
  3  6  1  0  0  0  0 
  7  4  2  0  0  0  0 
  4  8  1  0  0  0  0 
  5  9  1  0  0  0  0 
  5 10  2  0  0  0  0 
  6 11  2  0  0  0  0 
 11  7  1  0  0  0  0 
  8 12  1  0  0  0  0 
  8 13  2  0  0  0  0 
M  CHG  1   5   1
M  CHG  1   8   1
M  CHG  1   9  -1
M  CHG  1  12  -1
M  END
> <Name>
Phenol, 2,6-dinitro-

> <Source>
DSSTox2DMolFile

> <Tox>
3.830

> <CAS>
573-56-8

$$$$

  CDK

 12 13  0  0  0  0  0  0  0  0999 V2000
    4.6371    3.9159    0.9133 C   0  0  0  0  0  0  0  0  0  0  0  0
    4.6535    5.4047    0.9133 C   0  0  0  0  0  0  0  0  0  0  0  0
    3.3881    3.2138    0.9133 C   0  0  0  0  0  0  0  0  0  0  0  0
    5.8181    3.2004    0.9117 C   0  0  0  0  0  0  0  0  0  0  0  0
    3.3821    1.8033    0.9114 C   0  0  0  0  0  0  0  0  0  0  0  0
    2.1349    3.8887    0.9154 C   0  0  0  0  0  0  0  0  0  0  0  0
    7.1638    3.8356    0.9119 C   0  0  0  0  0  0  0  0  0  0  0  0
    5.7951    1.7795    0.9096 C   0  0  0  0  0  0  0  0  0  0  0  0
    4.6148    1.0957    0.9091 C   0  0  0  0  0  0  0  0  0  0  0  0
    2.1475    1.0984    0.9111 C   0  0  0  0  0  0  0  0  0  0  0  0
    0.9576    3.1934    0.9151 C   0  0  0  0  0  0  0  0  0  0  0  0
    0.9609    1.7786    0.9127 C   0  0  0  0  0  0  0  0  0  0  0  0
  1  2  1  0  0  0  0 
  3  1  2  0  0  0  0 
  1  4  1  0  0  0  0 
  3  5  1  0  0  0  0 
  6  3  1  0  0  0  0 
  4  7  1  0  0  0  0 
  4  8  2  0  0  0  0 
  9  5  2  0  0  0  0 
  5 10  1  0  0  0  0 
 11  6  2  0  0  0  0 
  8  9  1  0  0  0  0 
 10 12  2  0  0  0  0 
 12 11  1  0  0  0  0 
M  END
> <Name>
1,2-dimethylnaphthalene

> <Source>
NIST3DMolFile

> <Tox>
4.310

> <CAS>
573-98-8

$$$$

  CDK

  9  9  0  0  0  0  0  0  0  0999 V2000
    0.2596    2.2777   -0.1211 N   0  0  0  0  0  0  0  0  0  0  0  0
   -0.3055    0.9660   -0.0226 C   0  0  0  0  0  0  0  0  0  0  0  0
    0.4596   -0.1897   -0.2638 C   0  0  0  0  0  0  0  0  0  0  0  0
   -1.6826    0.8513    0.2248 C   0  0  0  0  0  0  0  0  0  0  0  0
   -0.1784   -1.4316   -0.2767 C   0  0  0  0  0  0  0  0  0  0  0  0
    1.9371   -0.1416   -0.5019 C   0  0  0  0  0  0  0  0  0  0  0  0
   -2.2922   -0.3939    0.2147 C   0  0  0  0  0  0  0  0  0  0  0  0
   -1.5423   -1.5377   -0.0412 C   0  0  0  0  0  0  0  0  0  0  0  0
    2.7094   -0.7088    0.6718 C   0  0  0  0  0  0  0  0  0  0  0  0
  1  2  1  0  0  0  0 
  2  3  1  0  0  0  0 
  2  4  2  0  0  0  0 
  3  5  2  0  0  0  0 
  3  6  1  0  0  0  0 
  7  4  1  0  0  0  0 
  5  8  1  0  0  0  0 
  6  9  1  0  0  0  0 
  8  7  2  0  0  0  0 
M  END
> <Name>
Aniline, o-ethyl- (8CI)

> <Source>
DougDB3DMolFile

> <Tox>
2.780

> <CAS>
578-54-1

$$$$

  CDK

 13 14  0  0  0  0  0  0  0  0999 V2000
    3.9910   -2.3082    0.0000 C   0  0  0  0  0  0  0  0  0  0  0  0
    4.6562   -1.1574    0.0000 C   0  0  0  0  0  0  0  0  0  0  0  0
    4.6562   -3.4589    0.0000 C   0  0  0  0  0  0  0  0  0  0  0  0
    2.6607   -2.3082    0.0000 C   0  0  0  0  0  0  0  0  0  0  0  0
    5.9866   -1.1574    0.0000 C   0  0  0  0  0  0  0  0  0  0  0  0
    5.9866   -3.4589    0.0000 C   0  0  0  0  0  0  0  0  0  0  0  0
    1.9955   -3.4589    0.0000 C   0  0  0  0  0  0  0  0  0  0  0  0
    1.9955   -1.1574    0.0000 C   0  0  0  0  0  0  0  0  0  0  0  0
    6.6517   -0.0000    0.0000 O   0  0  0  0  0  0  0  0  0  0  0  0
    6.6517   -2.3082    0.0000 C   0  0  0  0  0  0  0  0  0  0  0  0
    0.6652   -3.4589    0.0000 C   0  0  0  0  0  0  0  0  0  0  0  0
    0.6652   -1.1574    0.0000 C   0  0  0  0  0  0  0  0  0  0  0  0
    0.0000   -2.3082    0.0000 C   0  0  0  0  0  0  0  0  0  0  0  0
  1  2  2  0  0  0  0 
  1  3  1  0  0  0  0 
  1  4  1  0  0  0  0 
  2  5  1  0  0  0  0 
  6  3  2  0  0  0  0 
  4  7  2  0  0  0  0 
  4  8  1  0  0  0  0 
  5  9  1  0  0  0  0 
  5 10  2  0  0  0  0 
 10  6  1  0  0  0  0 
  7 11  1  0  0  0  0 
 12  8  2  0  0  0  0 
 11 13  2  0  0  0  0 
 13 12  1  0  0  0  0 
M  END
> <Name>
3-phenylphenol

> <Source>
DSSTox2DMolFile

> <Tox>
4.350

> <CAS>
580-51-8

$$$$

  CDK

 13 13  0  0  0  0  0  0  0  0999 V2000
    2.4253    3.4981    0.0000 C   0  0  0  0  0  0  0  0  0  0  0  0
    2.4253    2.0988    0.0000 C   0  0  0  0  0  0  0  0  0  0  0  0
    3.6380    4.1977    0.0000 C   0  0  0  0  0  0  0  0  0  0  0  0
    3.6380    1.3992    0.0000 C   0  0  0  0  0  0  0  0  0  0  0  0
    1.2127    1.3992    0.0000 N   0  0  0  0  0  0  0  0  0  0  0  0
    4.8506    3.4981    0.0000 C   0  0  0  0  0  0  0  0  0  0  0  0
    3.6380    5.5969    0.0000 O   0  0  0  0  0  0  0  0  0  0  0  0
    4.8506    2.0988    0.0000 C   0  0  0  0  0  0  0  0  0  0  0  0
    0.0000    2.0988    0.0000 O   0  0  0  0  0  0  0  0  0  0  0  0
    1.2127    0.0000    0.0000 O   0  0  0  0  0  0  0  0  0  0  0  0
    6.0633    1.3992    0.0000 N   0  0  0  0  0  0  0  0  0  0  0  0
    6.0633    0.0000    0.0000 O   0  0  0  0  0  0  0  0  0  0  0  0
    7.2760    2.0988    0.0000 O   0  0  0  0  0  0  0  0  0  0  0  0
  1  2  2  0  0  0  0 
  1  3  1  0  0  0  0 
  2  4  1  0  0  0  0 
  2  5  1  0  0  0  0 
  6  3  2  0  0  0  0 
  3  7  1  0  0  0  0 
  4  8  2  0  0  0  0 
  5  9  1  0  0  0  0 
  5 10  2  0  0  0  0 
  8  6  1  0  0  0  0 
  8 11  1  0  0  0  0 
 11 12  1  0  0  0  0 
 11 13  2  0  0  0  0 
M  CHG  1   5   1
M  CHG  1   9  -1
M  CHG  1  11   1
M  CHG  1  12  -1
M  END
> <Name>
3,5-dinitrophenol

> <Source>
IndexNet2DMolFile

> <Tox>
4.410

> <CAS>
586-11-8

$$$$

  CDK

 10 10  0  0  0  0  0  0  0  0999 V2000
    3.9347    0.0275    0.0015 Br  0  0  0  0  0  0  0  0  0  0  0  0
    2.0450    0.0025    0.0000 C   0  0  0  0  0  0  0  0  0  0  0  0
    1.3638   -1.2148   -0.0003 C   0  0  0  0  0  0  0  0  0  0  0  0
    1.3314    1.2011   -0.0003 C   0  0  0  0  0  0  0  0  0  0  0  0
   -0.0309   -1.2337   -0.0009 C   0  0  0  0  0  0  0  0  0  0  0  0
   -0.0634    1.1822   -0.0008 C   0  0  0  0  0  0  0  0  0  0  0  0
   -0.7445   -0.0352   -0.0012 C   0  0  0  0  0  0  0  0  0  0  0  0
   -2.1988   -0.0547    0.0000 C   0  0  0  0  0  0  0  0  0  0  0  0
   -2.7360    1.1960    0.0009 O   0  0  0  0  0  0  0  0  0  0  0  0
   -2.9012   -1.0709    0.0012 O   0  0  0  0  0  0  0  0  0  0  0  0
  1  2  1  0  0  0  0 
  3  2  2  0  0  0  0 
  4  2  1  0  0  0  0 
  5  3  1  0  0  0  0 
  6  4  2  0  0  0  0 
  7  5  2  0  0  0  0 
  7  6  1  0  0  0  0 
  7  8  1  0  0  0  0 
  9  8  1  0  0  0  0 
 10  8  2  0  0  0  0 
M  END
> <Name>
4-bromobenzoic acid

> <Source>
Chemidplus3DMolFile

> <Tox>
3.180

> <CAS>
586-76-5

$$$$

  CDK

  9  9  0  0  0  0  0  0  0  0999 V2000
    0.0000   -0.0000    0.0000 O   0  0  0  0  0  0  0  0  0  0  0  0
    0.6638   -1.1542    0.0000 C   0  0  0  0  0  0  0  0  0  0  0  0
    1.9915   -1.1542    0.0000 C   0  0  0  0  0  0  0  0  0  0  0  0
    2.6554   -0.0000    0.0000 C   0  0  0  0  0  0  0  0  0  0  0  0
    2.6554   -2.3025    0.0000 C   0  0  0  0  0  0  0  0  0  0  0  0
    3.9890   -0.0000    0.0000 C   0  0  0  0  0  0  0  0  0  0  0  0
    3.9890   -2.3025    0.0000 C   0  0  0  0  0  0  0  0  0  0  0  0
    4.6529   -1.1542    0.0000 C   0  0  0  0  0  0  0  0  0  0  0  0
    5.9806   -1.1542    0.0000 C   0  0  0  0  0  0  0  0  0  0  0  0
  1  2  1  0  0  0  0 
  2  3  1  0  0  0  0 
  3  4  2  0  0  0  0 
  3  5  1  0  0  0  0 
  4  6  1  0  0  0  0 
  7  5  2  0  0  0  0 
  6  8  2  0  0  0  0 
  8  7  1  0  0  0  0 
  8  9  1  0  0  0  0 
M  END
> <Name>
4-Methyl-benzenemethanol (9CI)

> <Source>
DSSTox2DMolFile

> <Tox>
2.510

> <CAS>
589-18-4

$$$$

  CDK

  8  8  0  0  0  0  0  0  0  0999 V2000
    0.0000    0.0000    0.0000 Br  0  0  0  0  0  0  0  0  0  0  0  0
   -1.8800   -0.0400    0.0600 C   0  0  0  0  0  0  0  0  0  0  0  0
   -2.6000    1.1400    0.3400 C   0  0  0  0  0  0  0  0  0  0  0  0
   -2.5600   -1.2400   -0.1800 C   0  0  0  0  0  0  0  0  0  0  0  0
   -4.0000    1.1200    0.3800 C   0  0  0  0  0  0  0  0  0  0  0  0
   -3.9800   -1.2600   -0.1400 C   0  0  0  0  0  0  0  0  0  0  0  0
   -4.7000   -0.0800    0.1400 C   0  0  0  0  0  0  0  0  0  0  0  0
   -6.7400   -0.1200    0.2000 I   0  0  0  0  0  0  0  0  0  0  0  0
  1  2  1  0  0  0  0 
  3  2  2  0  0  0  0 
  2  4  1  0  0  0  0 
  5  3  1  0  0  0  0 
  6  4  2  0  0  0  0 
  7  5  2  0  0  0  0 
  7  6  1  0  0  0  0 
  8  7  1  0  0  0  0 
M  END
> <Name>
1-bromo-4-iodobenzene

> <Source>
NIH3DMolFile

> <Tox>
3.350

> <CAS>
589-87-7

$$$$

  CDK

  7  6  0  0  0  0  0  0  0  0999 V2000
    1.7489    0.4997    0.0000 C   0  0  0  0  0  0  0  0  0  0  0  0
    2.5984    0.0000    0.0000 C   0  0  0  0  0  0  0  0  0  0  0  0
    0.8495    0.0000    0.0000 C   0  0  0  0  0  0  0  0  0  0  0  0
    3.4478    0.4997    0.0000 O   0  0  0  0  0  0  0  0  0  0  0  0
    0.0000    0.4997    0.0000 C   0  0  0  0  0  0  0  0  0  0  0  0
    4.3473    0.0000    0.0000 C   0  0  0  0  0  0  0  0  0  0  0  0
    5.1968    0.4997    0.0000 O   0  0  0  0  0  0  0  0  0  0  0  0
  1  2  1  0  0  0  0 
  1  3  1  0  0  0  0 
  2  4  1  0  0  0  0 
  3  5  1  0  0  0  0 
  4  6  1  0  0  0  0 
  6  7  2  0  0  0  0 
M  END
> <Name>
Formic acid, butyl ester

> <Source>
NIST2DMolFile

> <Tox>
2.066

> <CAS>
592-84-7

$$$$

  CDK

  7  6  0  0  0  0  0  0  0  0999 V2000
    3.4613    0.5016    0.0000 C   0  0  0  0  0  0  0  0  0  0  0  0
    2.6085    0.0000    0.0000 S   0  0  0  0  0  0  0  0  0  0  0  0
    4.3642    0.0502    0.0000 C   0  0  0  0  0  0  0  0  0  0  0  0
    1.7557    0.5016    0.0000 C   0  0  0  0  0  0  0  0  0  0  0  0
    5.2170    0.5518    0.0000 C   0  0  0  0  0  0  0  0  0  0  0  0
    0.8528    0.0000    0.0000 C   0  0  0  0  0  0  0  0  0  0  0  0
    0.0000    0.5016    0.0000 C   0  0  0  0  0  0  0  0  0  0  0  0
  1  2  1  0  0  0  0 
  1  3  1  0  0  0  0 
  2  4  1  0  0  0  0 
  3  5  2  0  0  0  0 
  4  6  1  0  0  0  0 
  6  7  2  0  0  0  0 
M  END
> <Name>
1-Propene, 3,3'-thiobis-

> <Source>
NIST2DMolFile

> <Tox>
2.690

> <CAS>
592-88-1

$$$$

  CDK

  8  7  0  0  0  0  0  0  0  0999 V2000
    2.1000    2.3333    0.0000 C   0  0  0  0  0  0  0  0  0  0  0  0
    2.3333    0.9333    0.0000 N   0  0  0  0  0  0  0  0  0  0  0  0
    3.5000    2.3333    0.0000 C   0  0  0  0  0  0  0  0  0  0  0  0
    0.7933    1.8667    0.0000 C   0  0  0  0  0  0  0  0  0  0  0  0
    1.4000    3.5467    0.0000 C   0  0  0  0  0  0  0  0  0  0  0  0
    3.6400    0.4667    0.0000 C   0  0  0  0  0  0  0  0  0  0  0  0
    0.0000    3.5467    0.0000 C   0  0  0  0  0  0  0  0  0  0  0  0
    4.9467    0.0000    0.0000 S   0  0  0  0  0  0  0  0  0  0  0  0
  1  2  1  0  0  0  0 
  1  3  1  0  0  0  0 
  1  4  1  0  0  0  0 
  1  5  1  0  0  0  0 
  2  6  2  0  0  0  0 
  5  7  1  0  0  0  0 
  6  8  2  0  0  0  0 
M  END
> <Name>
Neopentyl isothiocyanate

> <Source>
IndexNet2DMolFile

> <Tox>
3.353

> <CAS>
597-97-7

$$$$

  CDK

  6  5  0  0  0  0  0  0  0  0999 V2000
    3.3250   -1.1509    0.0000 C   0  0  0  0  0  0  0  0  0  0  0  0
    1.9943   -1.1509    0.0000 C   0  0  0  0  0  0  0  0  0  0  0  0
    1.3307   -0.0000    0.0000 C   0  0  0  0  0  0  0  0  0  0  0  0
    1.3307   -2.3053    0.0000 C   0  0  0  0  0  0  0  0  0  0  0  0
    1.9943   -3.4563    0.0000 C   0  0  0  0  0  0  0  0  0  0  0  0
    0.0000   -2.3053    0.0000 N   0  0  0  0  0  0  0  0  0  0  0  0
  1  2  1  0  0  0  0 
  2  3  1  0  0  0  0 
  2  4  1  0  0  0  0 
  4  5  1  0  0  0  0 
  4  6  1  0  0  0  0 
M  END
> <Name>
Propylamine, 1,2-dimethyl-

> <Source>
DSSTox2DMolFile

> <Tox>
2.291

> <CAS>
598-74-3

$$$$

  CDK

  7  6  0  0  0  0  0  0  0  0999 V2000
   -2.2989    0.7377   -0.0004 C   0  0  0  0  0  0  0  0  0  0  0  0
   -1.1808   -0.2620    0.0000 C   0  0  0  0  0  0  0  0  0  0  0  0
    0.2576    0.2969    0.0003 C   0  0  0  0  0  0  0  0  0  0  0  0
   -1.3790   -1.4600    0.0001 O   0  0  0  0  0  0  0  0  0  0  0  0
    1.3698   -0.7215    0.0004 C   0  0  0  0  0  0  0  0  0  0  0  0
    0.4401    1.4965    0.0004 O   0  0  0  0  0  0  0  0  0  0  0  0
    2.7592   -0.1292   -0.0006 C   0  0  0  0  0  0  0  0  0  0  0  0
  1  2  1  0  0  0  0 
  2  3  1  0  0  0  0 
  2  4  2  0  0  0  0 
  3  5  1  0  0  0  0 
  3  6  2  0  0  0  0 
  5  7  1  0  0  0  0 
M  END
> <Name>
2,3-Pentanedione

> <Source>
DougDB3DMolFile

> <Tox>
2.840

> <CAS>
600-14-6

$$$$

  CDK

 12 12  0  0  0  0  0  0  0  0999 V2000
    3.4903    2.9917    0.0000 O   0  0  0  0  0  0  0  0  0  0  0  0
    3.4903    1.9945    0.0000 N   0  0  0  0  0  0  0  0  0  0  0  0
    4.4875    1.9945    0.0000 O   0  0  0  0  0  0  0  0  0  0  0  0
    2.5928    1.4958    0.0000 C   0  0  0  0  0  0  0  0  0  0  0  0
    1.7452    1.9945    0.0000 C   0  0  0  0  0  0  0  0  0  0  0  0
    2.5928    0.4986    0.0000 C   0  0  0  0  0  0  0  0  0  0  0  0
    1.7452    2.9917    0.0000 C   0  0  0  0  0  0  0  0  0  0  0  0
    0.8975    1.4958    0.0000 C   0  0  0  0  0  0  0  0  0  0  0  0
    3.4903    0.0000    0.0000 C   0  0  0  0  0  0  0  0  0  0  0  0
    1.7452    0.0000    0.0000 C   0  0  0  0  0  0  0  0  0  0  0  0
    0.8975    0.4986    0.0000 C   0  0  0  0  0  0  0  0  0  0  0  0
    0.0000    0.0000    0.0000 C   0  0  0  0  0  0  0  0  0  0  0  0
  1  2  2  0  0  0  0 
  2  3  2  0  0  0  0 
  2  4  1  0  0  0  0 
  5  4  2  0  0  0  0 
  4  6  1  0  0  0  0 
  7  5  1  0  0  0  0 
  8  5  1  0  0  0  0 
  9  6  1  0  0  0  0 
  6 10  2  0  0  0  0 
 11  8  2  0  0  0  0 
 10 11  1  0  0  0  0 
 12 11  1  0  0  0  0 
M  END
> <Name>
Mesitylene, 2-nitro- (8CI)

> <Source>
NIST2DMolFile

> <Tox>
3.860

> <CAS>
603-71-4

$$$$

  CDK

 16 18  0  0  0  0  0  0  0  0999 V2000
    3.5270    1.4651    4.9421 C   0  0  0  0  0  0  0  0  0  0  0  0
    3.0263    1.2290    3.6258 C   0  0  0  0  0  0  0  0  0  0  0  0
    4.8448    1.1972    5.2302 C   0  0  0  0  0  0  0  0  0  0  0  0
    2.6569    2.0061    5.9984 C   0  0  0  0  0  0  0  0  0  0  0  0
    3.8956    0.7009    2.6473 C   0  0  0  0  0  0  0  0  0  0  0  0
    1.6821    1.5172    3.2615 C   0  0  0  0  0  0  0  0  0  0  0  0
    5.7076    0.6614    4.2484 C   0  0  0  0  0  0  0  0  0  0  0  0
    2.8886    3.2861    6.5064 C   0  0  0  0  0  0  0  0  0  0  0  0
    1.6123    1.2377    6.5178 C   0  0  0  0  0  0  0  0  0  0  0  0
    5.2464    0.4157    2.9844 C   0  0  0  0  0  0  0  0  0  0  0  0
    3.4110    0.4653    1.3314 C   0  0  0  0  0  0  0  0  0  0  0  0
    1.2389    1.2845    1.9889 C   0  0  0  0  0  0  0  0  0  0  0  0
    2.0826    3.7887    7.5214 C   0  0  0  0  0  0  0  0  0  0  0  0
    0.8132    1.7413    7.5375 C   0  0  0  0  0  0  0  0  0  0  0  0
    2.1124    0.7514    1.0123 C   0  0  0  0  0  0  0  0  0  0  0  0
    1.0470    3.0176    8.0392 C   0  0  0  0  0  0  0  0  0  0  0  0
  2  1  2  0  0  0  0 
  1  3  1  0  0  0  0 
  1  4  1  0  0  0  0 
  2  5  1  0  0  0  0 
  6  2  1  0  0  0  0 
  3  7  2  0  0  0  0 
  8  4  2  0  0  0  0 
  4  9  1  0  0  0  0 
 10  5  2  0  0  0  0 
  5 11  1  0  0  0  0 
 12  6  2  0  0  0  0 
  7 10  1  0  0  0  0 
 13  8  1  0  0  0  0 
  9 14  2  0  0  0  0 
 11 15  2  0  0  0  0 
 15 12  1  0  0  0  0 
 16 13  2  0  0  0  0 
 14 16  1  0  0  0  0 
M  END
> <Name>
Naphthalene, 1-phenyl- (8CI)(9CI)

> <Source>
NIST3DMolFile

> <Tox>
5.040

> <CAS>
605-02-7

$$$$

  CDK

 17 18  0  0  0  0  0  0  0  0999 V2000
   -1.6927   -2.3524   -0.0009 O   0  0  0  0  0  0  0  0  0  0  0  0
   -0.9645   -1.1940    0.0005 C   0  0  0  0  0  0  0  0  0  0  0  0
    0.4392   -1.2392    0.0003 C   0  0  0  0  0  0  0  0  0  0  0  0
   -1.6377    0.0281    0.0010 C   0  0  0  0  0  0  0  0  0  0  0  0
    1.1704   -0.0275    0.0002 C   0  0  0  0  0  0  0  0  0  0  0  0
    1.1332   -2.4601    0.0000 C   0  0  0  0  0  0  0  0  0  0  0  0
   -3.0592    0.0787    0.0001 N   0  0  0  0  0  0  0  0  0  0  0  0
   -0.9185    1.2197    0.0005 C   0  0  0  0  0  0  0  0  0  0  0  0
    0.4765    1.1936    0.0002 C   0  0  0  0  0  0  0  0  0  0  0  0
    2.5741   -0.0724   -0.0002 C   0  0  0  0  0  0  0  0  0  0  0  0
    2.5281   -2.4860   -0.0001 C   0  0  0  0  0  0  0  0  0  0  0  0
   -3.6253    1.1971   -0.0010 O   0  0  0  0  0  0  0  0  0  0  0  0
   -3.7034   -0.9967    0.0001 O   0  0  0  0  0  0  0  0  0  0  0  0
    1.1537    2.4488   -0.0002 N   0  0  0  0  0  0  0  0  0  0  0  0
    3.2473   -1.2944   -0.0002 C   0  0  0  0  0  0  0  0  0  0  0  0
    0.4734    3.4996   -0.0002 O   0  0  0  0  0  0  0  0  0  0  0  0
    2.4054    2.4573   -0.0001 O   0  0  0  0  0  0  0  0  0  0  0  0
  1  2  1  0  0  0  0 
  3  2  1  0  0  0  0 
  2  4  2  0  0  0  0 
  5  3  1  0  0  0  0 
  3  6  2  0  0  0  0 
  7  4  1  0  0  0  0 
  4  8  1  0  0  0  0 
  5  9  1  0  0  0  0 
  5 10  2  0  0  0  0 
  6 11  1  0  0  0  0 
 12  7  1  0  0  0  0 
 13  7  2  0  0  0  0 
  9  8  2  0  0  0  0 
 14  9  1  0  0  0  0 
 10 15  1  0  0  0  0 
 15 11  2  0  0  0  0 
 16 14  1  0  0  0  0 
 17 14  2  0  0  0  0 
M  CHG  1   7   1
M  CHG  1  12  -1
M  CHG  1  14   1
M  CHG  1  16  -1
M  END
> <Name>
2,4-dinitronaphthalen-1-ol

> <Source>
Chemidplus3DMolFile

> <Tox>
4.890

> <CAS>
605-69-6

$$$$

  CDK

  9  9  0  0  0  0  0  0  0  0999 V2000
    2.6164    0.5130    0.0000 C   0  0  0  0  0  0  0  0  0  0  0  0
    2.6164    1.5390    0.0000 C   0  0  0  0  0  0  0  0  0  0  0  0
    1.7956    0.0000    0.0000 C   0  0  0  0  0  0  0  0  0  0  0  0
    1.7956    2.0008    0.0000 C   0  0  0  0  0  0  0  0  0  0  0  0
    3.5398    2.0008    0.0000 Br  0  0  0  0  0  0  0  0  0  0  0  0
    0.9234    0.5130    0.0000 C   0  0  0  0  0  0  0  0  0  0  0  0
    0.9234    1.5390    0.0000 C   0  0  0  0  0  0  0  0  0  0  0  0
    1.7956    2.9755    0.0000 N   0  0  0  0  0  0  0  0  0  0  0  0
    0.0000    2.0008    0.0000 Br  0  0  0  0  0  0  0  0  0  0  0  0
  2  1  2  0  0  0  0 
  1  3  1  0  0  0  0 
  4  2  1  0  0  0  0 
  2  5  1  0  0  0  0 
  3  6  2  0  0  0  0 
  7  4  2  0  0  0  0 
  4  8  1  0  0  0  0 
  6  7  1  0  0  0  0 
  7  9  1  0  0  0  0 
M  END
> <Name>
2,6-Dibromoaniline

> <Source>
NIST2DMolFile

> <Tox>
3.900

> <CAS>
608-30-0

$$$$

  CDK

  8  8  0  0  0  0  0  0  0  0999 V2000
   -0.6329    1.0703    0.0001 O   0  0  0  0  0  0  0  0  0  0  0  0
    0.0356   -0.1129   -0.0001 C   0  0  0  0  0  0  0  0  0  0  0  0
   -1.9578    0.7681    0.0002 C   0  0  0  0  0  0  0  0  0  0  0  0
    1.4281   -0.0168    0.0001 N   0  0  0  0  0  0  0  0  0  0  0  0
   -0.8480   -1.1671   -0.0002 C   0  0  0  0  0  0  0  0  0  0  0  0
   -2.1425   -0.5949   -0.0001 C   0  0  0  0  0  0  0  0  0  0  0  0
    2.1343   -1.0683    0.0003 O   0  0  0  0  0  0  0  0  0  0  0  0
    1.9833    1.1218   -0.0003 O   0  0  0  0  0  0  0  0  0  0  0  0
  1  2  1  0  0  0  0 
  1  3  1  0  0  0  0 
  4  2  1  0  0  0  0 
  2  5  2  0  0  0  0 
  6  3  2  0  0  0  0 
  7  4  1  0  0  0  0 
  8  4  2  0  0  0  0 
  5  6  1  0  0  0  0 
M  CHG  1   4   1
M  CHG  1   7  -1
M  END
> <Name>
2-nitrofuran

> <Source>
Chemidplus3DMolFile

> <Tox>
3.740

> <CAS>
609-39-2

$$$$

  CDK

  8  8  0  0  0  0  0  0  0  0999 V2000
    0.8046    0.2514    0.0000 S   0  0  0  0  0  0  0  0  0  0  0  0
    1.6092    0.8549    0.0000 C   0  0  0  0  0  0  0  0  0  0  0  0
    0.0000    0.8549    0.0000 C   0  0  0  0  0  0  0  0  0  0  0  0
    2.6150    0.8549    0.0000 N   0  0  0  0  0  0  0  0  0  0  0  0
    1.3075    1.8104    0.0000 C   0  0  0  0  0  0  0  0  0  0  0  0
    0.3017    1.8104    0.0000 C   0  0  0  0  0  0  0  0  0  0  0  0
    3.0675    0.0000    0.0000 O   0  0  0  0  0  0  0  0  0  0  0  0
    2.6150    1.8606    0.0000 O   0  0  0  0  0  0  0  0  0  0  0  0
  2  1  1  0  0  0  0 
  1  3  1  0  0  0  0 
  2  4  1  0  0  0  0 
  5  2  2  0  0  0  0 
  3  6  2  0  0  0  0 
  4  7  2  0  0  0  0 
  4  8  2  0  0  0  0 
  6  5  1  0  0  0  0 
M  END
> <Name>
2-nitrothiophene

> <Source>
NIST2DMolFile

> <Tox>
3.510

> <CAS>
609-40-5

$$$$

  CDK

 14 14  0  0  0  0  0  0  0  0999 V2000
    3.4607   -1.3263    0.0000 C   0  0  0  0  0  0  0  0  0  0  0  0
    3.4607   -0.0000    0.0000 O   0  0  0  0  0  0  0  0  0  0  0  0
    4.6004   -2.0032    0.0000 C   0  0  0  0  0  0  0  0  0  0  0  0
    2.3071   -2.0032    0.0000 C   0  0  0  0  0  0  0  0  0  0  0  0
    4.6004   -3.3295    0.0000 C   0  0  0  0  0  0  0  0  0  0  0  0
    5.7540   -1.3263    0.0000 N   0  0  0  0  0  0  0  0  0  0  0  0
    2.3071   -3.3295    0.0000 C   0  0  0  0  0  0  0  0  0  0  0  0
    1.1536   -1.3263    0.0000 N   0  0  0  0  0  0  0  0  0  0  0  0
    3.4607   -3.9857    0.0000 C   0  0  0  0  0  0  0  0  0  0  0  0
    5.7540   -0.0000    0.0000 O   0  0  0  0  0  0  0  0  0  0  0  0
    6.9076   -2.0032    0.0000 O   0  0  0  0  0  0  0  0  0  0  0  0
    0.0000   -2.0032    0.0000 O   0  0  0  0  0  0  0  0  0  0  0  0
    1.1536   -0.0000    0.0000 O   0  0  0  0  0  0  0  0  0  0  0  0
    3.4607   -5.3188    0.0000 C   0  0  0  0  0  0  0  0  0  0  0  0
  1  2  1  0  0  0  0 
  1  3  2  0  0  0  0 
  1  4  1  0  0  0  0 
  3  5  1  0  0  0  0 
  3  6  1  0  0  0  0 
  4  7  2  0  0  0  0 
  4  8  1  0  0  0  0 
  5  9  2  0  0  0  0 
  6 10  1  0  0  0  0 
  6 11  2  0  0  0  0 
  7  9  1  0  0  0  0 
  8 12  1  0  0  0  0 
  8 13  2  0  0  0  0 
  9 14  1  0  0  0  0 
M  CHG  1   6   1
M  CHG  1   8   1
M  CHG  1  10  -1
M  CHG  1  12  -1
M  END
> <Name>
Phenol, 4-methyl-2,6-dinitro-

> <Source>
DSSTox2DMolFile

> <Tox>
4.230

> <CAS>
609-93-8

$$$$

  CDK

  9  9  0  0  0  0  0  0  0  0999 V2000
    3.2605    0.6019    0.0000 O   0  0  0  0  0  0  0  0  0  0  0  0
    2.5582    1.2540    0.0000 C   0  0  0  0  0  0  0  0  0  0  0  0
    4.2136    0.9029    0.0000 C   0  0  0  0  0  0  0  0  0  0  0  0
    2.8091    2.2573    0.0000 O   0  0  0  0  0  0  0  0  0  0  0  0
    1.6052    0.9531    0.0000 C   0  0  0  0  0  0  0  0  0  0  0  0
    1.3042    0.0000    0.0000 C   0  0  0  0  0  0  0  0  0  0  0  0
    0.8026    1.5550    0.0000 O   0  0  0  0  0  0  0  0  0  0  0  0
    0.3010    0.0000    0.0000 C   0  0  0  0  0  0  0  0  0  0  0  0
    0.0000    0.9531    0.0000 C   0  0  0  0  0  0  0  0  0  0  0  0
  1  2  1  0  0  0  0 
  1  3  1  0  0  0  0 
  2  4  2  0  0  0  0 
  2  5  1  0  0  0  0 
  5  6  2  0  0  0  0 
  7  5  1  0  0  0  0 
  6  8  1  0  0  0  0 
  9  7  1  0  0  0  0 
  8  9  2  0  0  0  0 
M  END
> <Name>
2-Furancarboxylic acid, methyl ester

> <Source>
NIST2DMolFile

> <Tox>
2.150

> <CAS>
611-13-2

$$$$

  CDK

 12 12  0  0  0  0  0  0  0  0999 V2000
    1.9953   -2.3079    0.0000 C   0  0  0  0  0  0  0  0  0  0  0  0
    0.6651   -2.3079    0.0000 C   0  0  0  0  0  0  0  0  0  0  0  0
    2.6604   -1.1573    0.0000 C   0  0  0  0  0  0  0  0  0  0  0  0
    2.6604   -3.4585    0.0000 C   0  0  0  0  0  0  0  0  0  0  0  0
    0.0000   -3.4585    0.0000 O   0  0  0  0  0  0  0  0  0  0  0  0
    1.9953   -0.0000    0.0000 O   0  0  0  0  0  0  0  0  0  0  0  0
    3.9906   -1.1573    0.0000 C   0  0  0  0  0  0  0  0  0  0  0  0
    3.9906   -3.4585    0.0000 C   0  0  0  0  0  0  0  0  0  0  0  0
    0.6651   -0.0000    0.0000 C   0  0  0  0  0  0  0  0  0  0  0  0
    4.6557   -2.3079    0.0000 C   0  0  0  0  0  0  0  0  0  0  0  0
    5.9859   -2.3079    0.0000 O   0  0  0  0  0  0  0  0  0  0  0  0
    6.6510   -3.4585    0.0000 C   0  0  0  0  0  0  0  0  0  0  0  0
  1  2  1  0  0  0  0 
  1  3  2  0  0  0  0 
  1  4  1  0  0  0  0 
  2  5  2  0  0  0  0 
  3  6  1  0  0  0  0 
  3  7  1  0  0  0  0 
  8  4  2  0  0  0  0 
  6  9  1  0  0  0  0 
  7 10  2  0  0  0  0 
 10  8  1  0  0  0  0 
 10 11  1  0  0  0  0 
 11 12  1  0  0  0  0 
M  END
> <Name>
Benzaldehyde, 2,4-dimethoxy-

> <Source>
DSSTox2DMolFile

> <Tox>
2.944

> <CAS>
613-45-6

$$$$

  CDK

 13 14  0  0  0  0  0  0  0  0999 V2000
    0.0000   -3.4578    0.0000 O   0  0  0  0  0  0  0  0  0  0  0  0
    0.6650   -2.3074    0.0000 N   0  0  0  0  0  0  0  0  0  0  0  0
    1.9949   -2.3074    0.0000 C   0  0  0  0  0  0  0  0  0  0  0  0
    0.0000   -1.1570    0.0000 O   0  0  0  0  0  0  0  0  0  0  0  0
    2.6599   -1.1570    0.0000 C   0  0  0  0  0  0  0  0  0  0  0  0
    2.6599   -3.4578    0.0000 C   0  0  0  0  0  0  0  0  0  0  0  0
    3.9898   -1.1570    0.0000 C   0  0  0  0  0  0  0  0  0  0  0  0
    3.9898   -3.4578    0.0000 C   0  0  0  0  0  0  0  0  0  0  0  0
    4.6548   -0.0000    0.0000 C   0  0  0  0  0  0  0  0  0  0  0  0
    4.6548   -2.3074    0.0000 C   0  0  0  0  0  0  0  0  0  0  0  0
    5.9847   -0.0000    0.0000 C   0  0  0  0  0  0  0  0  0  0  0  0
    5.9847   -2.3074    0.0000 N   0  0  0  0  0  0  0  0  0  0  0  0
    6.6497   -1.1570    0.0000 C   0  0  0  0  0  0  0  0  0  0  0  0
  1  2  2  0  0  0  0 
  2  3  1  0  0  0  0 
  2  4  1  0  0  0  0 
  3  5  2  0  0  0  0 
  3  6  1  0  0  0  0 
  5  7  1  0  0  0  0 
  8  6  2  0  0  0  0 
  7  9  2  0  0  0  0 
  7 10  1  0  0  0  0 
 10  8  1  0  0  0  0 
  9 11  1  0  0  0  0 
 12 10  2  0  0  0  0 
 11 13  2  0  0  0  0 
 13 12  1  0  0  0  0 
M  CHG  1   2   1
M  CHG  1   4  -1
M  END
> <Name>
Quinoline, 6-nitro-

> <Source>
DSSTox2DMolFile

> <Tox>
3.460

> <CAS>
613-50-3

$$$$

  CDK

 16 17  0  0  0  0  0  0  0  0999 V2000
    1.7710    0.5060    0.0000 C   0  0  0  0  0  0  0  0  0  0  0  0
    1.7710    1.5180    0.0000 C   0  0  0  0  0  0  0  0  0  0  0  0
    0.8602    0.0000    0.0000 C   0  0  0  0  0  0  0  0  0  0  0  0
    0.8602    1.9734    0.0000 C   0  0  0  0  0  0  0  0  0  0  0  0
    2.6312    1.9734    0.0000 C   0  0  0  0  0  0  0  0  0  0  0  0
    0.0000    0.5060    0.0000 C   0  0  0  0  0  0  0  0  0  0  0  0
    0.0000    1.5180    0.0000 C   0  0  0  0  0  0  0  0  0  0  0  0
    3.4914    1.5180    0.0000 C   0  0  0  0  0  0  0  0  0  0  0  0
    4.3516    1.9734    0.0000 C   0  0  0  0  0  0  0  0  0  0  0  0
    4.3516    2.9854    0.0000 O   0  0  0  0  0  0  0  0  0  0  0  0
    5.1612    1.5180    0.0000 C   0  0  0  0  0  0  0  0  0  0  0  0
    6.0721    1.9734    0.0000 C   0  0  0  0  0  0  0  0  0  0  0  0
    5.1612    0.5060    0.0000 C   0  0  0  0  0  0  0  0  0  0  0  0
    6.9323    1.5686    0.0000 C   0  0  0  0  0  0  0  0  0  0  0  0
    6.0721    0.0000    0.0000 C   0  0  0  0  0  0  0  0  0  0  0  0
    6.9323    0.5060    0.0000 C   0  0  0  0  0  0  0  0  0  0  0  0
  2  1  2  0  0  0  0 
  1  3  1  0  0  0  0 
  4  2  1  0  0  0  0 
  2  5  1  0  0  0  0 
  3  6  2  0  0  0  0 
  7  4  2  0  0  0  0 
  5  8  2  0  0  0  0 
  6  7  1  0  0  0  0 
  8  9  1  0  0  0  0 
  9 10  2  0  0  0  0 
  9 11  1  0  0  0  0 
 11 12  2  0  0  0  0 
 13 11  1  0  0  0  0 
 12 14  1  0  0  0  0 
 15 13  2  0  0  0  0 
 14 16  2  0  0  0  0 
 16 15  1  0  0  0  0 
M  END
> <Name>
2-Propen-1-one, 1,3-diphenyl-, (E)-

> <Source>
NIST2DMolFile

> <Tox>
4.510

> <CAS>
614-47-1

$$$$

  CDK

  9  9  0  0  0  0  0  0  0  0999 V2000
    1.7493    2.9988    0.0000 Cl  0  0  0  0  0  0  0  0  0  0  0  0
    1.7493    1.9992    0.0000 C   0  0  0  0  0  0  0  0  0  0  0  0
    0.8996    1.4994    0.0000 C   0  0  0  0  0  0  0  0  0  0  0  0
    2.5989    1.4994    0.0000 C   0  0  0  0  0  0  0  0  0  0  0  0
    0.0000    1.9992    0.0000 O   0  0  0  0  0  0  0  0  0  0  0  0
    0.8996    0.4998    0.0000 C   0  0  0  0  0  0  0  0  0  0  0  0
    2.5989    0.4998    0.0000 C   0  0  0  0  0  0  0  0  0  0  0  0
    1.7493    0.0000    0.0000 C   0  0  0  0  0  0  0  0  0  0  0  0
    3.4985    0.0000    0.0000 O   0  0  0  0  0  0  0  0  0  0  0  0
  1  2  1  0  0  0  0 
  3  2  2  0  0  0  0 
  2  4  1  0  0  0  0 
  3  5  1  0  0  0  0 
  6  3  1  0  0  0  0 
  4  7  2  0  0  0  0 
  8  6  2  0  0  0  0 
  7  8  1  0  0  0  0 
  7  9  1  0  0  0  0 
M  END
> <Name>
1,4-Benzenediol, 2-chloro-

> <Source>
NIST2DMolFile

> <Tox>
4.260

> <CAS>
615-67-8

$$$$

  CDK

 11 10  0  0  0  0  0  0  0  0999 V2000
    4.3103    1.5036    0.0000 C   0  0  0  0  0  0  0  0  0  0  0  0
    3.4583    1.0024    0.0000 C   0  0  0  0  0  0  0  0  0  0  0  0
    5.2125    1.0024    0.0000 O   0  0  0  0  0  0  0  0  0  0  0  0
    4.3103    2.5060    0.0000 O   0  0  0  0  0  0  0  0  0  0  0  0
    2.6062    1.5036    0.0000 C   0  0  0  0  0  0  0  0  0  0  0  0
    3.4583    0.0000    0.0000 Br  0  0  0  0  0  0  0  0  0  0  0  0
    6.0645    1.5036    0.0000 C   0  0  0  0  0  0  0  0  0  0  0  0
    1.7041    1.0024    0.0000 C   0  0  0  0  0  0  0  0  0  0  0  0
    6.9166    1.0024    0.0000 C   0  0  0  0  0  0  0  0  0  0  0  0
    0.8520    1.5036    0.0000 C   0  0  0  0  0  0  0  0  0  0  0  0
    0.0000    1.0024    0.0000 C   0  0  0  0  0  0  0  0  0  0  0  0
  1  2  1  0  0  0  0 
  1  3  1  0  0  0  0 
  1  4  2  0  0  0  0 
  2  5  1  0  0  0  0 
  2  6  1  0  0  0  0 
  3  7  1  0  0  0  0 
  5  8  1  0  0  0  0 
  7  9  1  0  0  0  0 
  8 10  1  0  0  0  0 
 10 11  1  0  0  0  0 
M  END
> <Name>
Hexanoic acid, 2-bromo-, ethyl ester

> <Source>
NIST2DMolFile

> <Tox>
3.860

> <CAS>
615-96-3

$$$$

  CDK

  6  5  0  0  0  0  0  0  0  0999 V2000
   -0.9196   -0.6712   -0.4775 C   0  0  0  0  0  0  0  0  0  0  0  0
    0.0144    0.3362    0.2327 C   0  0  0  0  0  0  0  0  0  0  0  0
   -2.1117   -0.7399    0.2711 O   0  0  0  0  0  0  0  0  0  0  0  0
    1.4415    0.2512   -0.3528 C   0  0  0  0  0  0  0  0  0  0  0  0
   -0.4179    1.6674    0.0335 O   0  0  0  0  0  0  0  0  0  0  0  0
    2.2806   -0.8091    0.2298 N   0  0  0  0  0  0  0  0  0  0  0  0
  1  2  1  0  0  0  0 
  1  3  1  0  0  0  0 
  2  4  1  0  0  0  0 
  2  5  1  0  0  0  0 
  4  6  1  0  0  0  0 
M  END
> <Name>
1,2-Propanediol, 3-amino-

> <Source>
DougDB3DMolFile

> <Tox>
1.188

> <CAS>
616-30-8

$$$$

  CDK

  7  7  0  0  0  0  0  0  0  0999 V2000
    1.6629    0.6551    0.0000 C   0  0  0  0  0  0  0  0  0  0  0  0
    0.8566    0.0504    0.0000 O   0  0  0  0  0  0  0  0  0  0  0  0
    1.3605    1.6125    0.0000 C   0  0  0  0  0  0  0  0  0  0  0  0
    2.6203    0.3023    0.0000 C   0  0  0  0  0  0  0  0  0  0  0  0
    0.0000    0.7055    0.0000 C   0  0  0  0  0  0  0  0  0  0  0  0
    0.3527    1.6125    0.0000 C   0  0  0  0  0  0  0  0  0  0  0  0
    3.4769    0.0000    0.0000 N   0  0  0  0  0  0  0  0  0  0  0  0
  1  2  1  0  0  0  0 
  3  1  2  0  0  0  0 
  1  4  1  0  0  0  0 
  2  5  1  0  0  0  0 
  6  3  1  0  0  0  0 
  4  7  3  0  0  0  0 
  5  6  2  0  0  0  0 
M  END
> <Name>
furan-2-carbonitrile

> <Source>
NIST2DMolFile

> <Tox>
2.290

> <CAS>
617-90-3

$$$$

  CDK

  9  9  0  0  0  0  0  0  0  0999 V2000
    2.5397   -0.1887   -1.6245 Br  0  0  0  0  0  0  0  0  0  0  0  0
    1.7092    0.4939    0.0008 C   0  0  0  0  0  0  0  0  0  0  0  0
    2.5393   -0.1935    1.6242 Br  0  0  0  0  0  0  0  0  0  0  0  0
    0.2413    0.2290    0.0001 C   0  0  0  0  0  0  0  0  0  0  0  0
   -0.6595    1.2940    0.0015 C   0  0  0  0  0  0  0  0  0  0  0  0
   -0.2305   -1.0835   -0.0014 C   0  0  0  0  0  0  0  0  0  0  0  0
   -2.0323    1.0463    0.0014 C   0  0  0  0  0  0  0  0  0  0  0  0
   -1.6032   -1.3313   -0.0017 C   0  0  0  0  0  0  0  0  0  0  0  0
   -2.5041   -0.2663   -0.0003 C   0  0  0  0  0  0  0  0  0  0  0  0
  1  2  1  0  0  0  0 
  3  2  1  0  0  0  0 
  4  2  1  0  0  0  0 
  4  5  2  0  0  0  0 
  4  6  1  0  0  0  0 
  5  7  1  0  0  0  0 
  6  8  2  0  0  0  0 
  7  9  2  0  0  0  0 
  8  9  1  0  0  0  0 
M  END
> <Name>
bis(bromanyl)methylbenzene

> <Source>
Chemidplus3DMolFile

> <Tox>
3.640

> <CAS>
618-31-5

$$$$

  CDK

 12 12  0  0  0  0  0  0  0  0999 V2000
    0.0500    2.5996    0.0000 O   0  0  0  0  0  0  0  0  0  0  0  0
    0.4999    1.7498    0.0000 N   0  0  0  0  0  0  0  0  0  0  0  0
    0.0000    0.8999    0.0000 O   0  0  0  0  0  0  0  0  0  0  0  0
    1.5498    1.7498    0.0000 C   0  0  0  0  0  0  0  0  0  0  0  0
    2.0497    2.5996    0.0000 C   0  0  0  0  0  0  0  0  0  0  0  0
    2.0497    0.8999    0.0000 C   0  0  0  0  0  0  0  0  0  0  0  0
    3.0496    2.5996    0.0000 C   0  0  0  0  0  0  0  0  0  0  0  0
    3.0496    0.8999    0.0000 C   0  0  0  0  0  0  0  0  0  0  0  0
    3.5495    3.4995    0.0000 Cl  0  0  0  0  0  0  0  0  0  0  0  0
    3.5495    1.7498    0.0000 C   0  0  0  0  0  0  0  0  0  0  0  0
    3.5495    0.0000    0.0000 Cl  0  0  0  0  0  0  0  0  0  0  0  0
    4.5494    1.7498    0.0000 O   0  0  0  0  0  0  0  0  0  0  0  0
  1  2  2  0  0  0  0 
  2  3  2  0  0  0  0 
  2  4  1  0  0  0  0 
  5  4  2  0  0  0  0 
  4  6  1  0  0  0  0 
  7  5  1  0  0  0  0 
  6  8  2  0  0  0  0 
  7  9  1  0  0  0  0 
 10  7  2  0  0  0  0 
  8 10  1  0  0  0  0 
  8 11  1  0  0  0  0 
 10 12  1  0  0  0  0 
M  END
> <Name>
Phenol, 2,6-dichloro-4-nitro-

> <Source>
NIST2DMolFile

> <Tox>
3.610

> <CAS>
618-80-4

$$$$

  CDK

 10 10  0  0  0  0  0  0  0  0999 V2000
    0.0000    0.0000    0.0000 N   0  0  0  0  0  0  0  0  0  0  0  0
    0.4974    0.8953    0.0000 C   0  0  0  0  0  0  0  0  0  0  0  0
    0.0000    1.7408    0.0000 O   0  0  0  0  0  0  0  0  0  0  0  0
    1.4921    0.8953    0.0000 C   0  0  0  0  0  0  0  0  0  0  0  0
    1.9398    1.7408    0.0000 C   0  0  0  0  0  0  0  0  0  0  0  0
    1.9398    0.0000    0.0000 C   0  0  0  0  0  0  0  0  0  0  0  0
    3.0340    1.7408    0.0000 C   0  0  0  0  0  0  0  0  0  0  0  0
    2.9345    0.0000    0.0000 C   0  0  0  0  0  0  0  0  0  0  0  0
    3.4319    0.8953    0.0000 C   0  0  0  0  0  0  0  0  0  0  0  0
    4.4267    0.8953    0.0000 O   0  0  0  0  0  0  0  0  0  0  0  0
  1  2  1  0  0  0  0 
  2  3  2  0  0  0  0 
  2  4  1  0  0  0  0 
  4  5  2  0  0  0  0 
  6  4  1  0  0  0  0 
  5  7  1  0  0  0  0 
  8  6  2  0  0  0  0 
  7  9  2  0  0  0  0 
  9  8  1  0  0  0  0 
 10  9  1  0  0  0  0 
M  END
> <Name>
Benzamide, 4-hydroxy-

> <Source>
NIST2DMolFile

> <Tox>
2.220

> <CAS>
619-57-8

$$$$

  CDK

  8  8  0  0  0  0  0  0  0  0999 V2000
    0.0000    0.0000    0.0000 O   0  0  0  0  0  0  0  0  0  0  0  0
    0.4986    0.8975    0.0000 C   0  0  0  0  0  0  0  0  0  0  0  0
    1.4959    0.8975    0.0000 C   0  0  0  0  0  0  0  0  0  0  0  0
    2.0942    1.6953    0.0000 O   0  0  0  0  0  0  0  0  0  0  0  0
    2.0942    0.0997    0.0000 C   0  0  0  0  0  0  0  0  0  0  0  0
    3.0416    1.3962    0.0000 C   0  0  0  0  0  0  0  0  0  0  0  0
    3.0416    0.3989    0.0000 C   0  0  0  0  0  0  0  0  0  0  0  0
    3.8394    1.9945    0.0000 C   0  0  0  0  0  0  0  0  0  0  0  0
  1  2  2  0  0  0  0 
  2  3  1  0  0  0  0 
  4  3  1  0  0  0  0 
  3  5  2  0  0  0  0 
  6  4  1  0  0  0  0 
  5  7  1  0  0  0  0 
  7  6  2  0  0  0  0 
  6  8  1  0  0  0  0 
M  END
> <Name>
2-Furancarboxaldehyde, 5-methyl-

> <Source>
NIST2DMolFile

> <Tox>
2.970

> <CAS>
620-02-0

$$$$

  CDK

  9  9  0  0  0  0  0  0  0  0999 V2000
    2.5527    1.5016    0.0000 C   0  0  0  0  0  0  0  0  0  0  0  0
    3.4036    2.0021    0.0000 C   0  0  0  0  0  0  0  0  0  0  0  0
    1.7018    2.0021    0.0000 C   0  0  0  0  0  0  0  0  0  0  0  0
    2.5527    0.5005    0.0000 C   0  0  0  0  0  0  0  0  0  0  0  0
    4.3045    2.5026    0.0000 N   0  0  0  0  0  0  0  0  0  0  0  0
    0.8008    1.5016    0.0000 C   0  0  0  0  0  0  0  0  0  0  0  0
    1.7018    0.0000    0.0000 C   0  0  0  0  0  0  0  0  0  0  0  0
    0.8008    0.5005    0.0000 C   0  0  0  0  0  0  0  0  0  0  0  0
    0.0000    0.0000    0.0000 Br  0  0  0  0  0  0  0  0  0  0  0  0
  1  2  1  0  0  0  0 
  3  1  2  0  0  0  0 
  1  4  1  0  0  0  0 
  2  5  3  0  0  0  0 
  6  3  1  0  0  0  0 
  4  7  2  0  0  0  0 
  8  6  2  0  0  0  0 
  7  8  1  0  0  0  0 
  8  9  1  0  0  0  0 
M  END
> <Name>
4-bromobenzonitrile

> <Source>
NIST2DMolFile

> <Tox>
3.290

> <CAS>
623-00-7

$$$$

  CDK

  8  7  0  0  0  0  0  0  0  0999 V2000
    3.4472    0.0000    0.0000 C   0  0  0  0  0  0  0  0  0  0  0  0
    2.5979    0.5496    0.0000 C   0  0  0  0  0  0  0  0  0  0  0  0
    4.3465    0.4996    0.0000 C   0  0  0  0  0  0  0  0  0  0  0  0
    1.7486    0.0500    0.0000 O   0  0  0  0  0  0  0  0  0  0  0  0
    2.5979    1.5488    0.0000 O   0  0  0  0  0  0  0  0  0  0  0  0
    5.1958    0.0500    0.0000 C   0  0  0  0  0  0  0  0  0  0  0  0
    0.8493    0.5496    0.0000 C   0  0  0  0  0  0  0  0  0  0  0  0
    0.0000    0.0500    0.0000 C   0  0  0  0  0  0  0  0  0  0  0  0
  1  2  1  0  0  0  0 
  1  3  2  0  0  0  0 
  2  4  1  0  0  0  0 
  2  5  2  0  0  0  0 
  3  6  1  0  0  0  0 
  4  7  1  0  0  0  0 
  7  8  1  0  0  0  0 
M  END
> <Name>
2-Butenoic acid, ethyl ester, (E)- (9CI)

> <Source>
NIST2DMolFile

> <Tox>
2.240

> <CAS>
623-70-1

$$$$

  CDK

  4  3  0  0  0  0  0  0  0  0999 V2000
    0.0000    0.0000    0.0000 C   0  0  0  0  0  0  0  0  0  0  0  0
   -1.4600    0.0000    0.0000 C   0  0  0  0  0  0  0  0  0  0  0  0
    1.1600    0.0000    0.0000 N   0  0  0  0  0  0  0  0  0  0  0  0
   -2.1800    2.0400    0.0000 I   0  0  0  0  0  0  0  0  0  0  0  0
  1  2  1  0  0  0  0 
  1  3  3  0  0  0  0 
  2  4  1  0  0  0  0 
M  END
> <Name>
2-iodoacetonitrile

> <Source>
NIH3DMolFile

> <Tox>
5.469

> <CAS>
624-75-9

$$$$

  CDK

 13 12  0  0  0  0  0  0  0  0999 V2000
    0.0000    2.3646    0.0000 C   0  0  0  0  0  0  0  0  0  0  0  0
    1.0307    2.3646    0.0000 C   0  0  0  0  0  0  0  0  0  0  0  0
    1.6371    1.8190    0.0000 C   0  0  0  0  0  0  0  0  0  0  0  0
    2.7284    1.8190    0.0000 C   0  0  0  0  0  0  0  0  0  0  0  0
    3.3954    1.2126    0.0000 O   0  0  0  0  0  0  0  0  0  0  0  0
    4.4868    1.2126    0.0000 S   0  0  0  0  0  0  0  0  0  0  0  0
    5.5175    1.2126    0.0000 O   0  0  0  0  0  0  0  0  0  0  0  0
    4.4868    2.4253    0.0000 O   0  0  0  0  0  0  0  0  0  0  0  0
    4.4868    0.0000    0.0000 O   0  0  0  0  0  0  0  0  0  0  0  0
    6.1238    1.8190    0.0000 C   0  0  0  0  0  0  0  0  0  0  0  0
    7.2152    1.8190    0.0000 C   0  0  0  0  0  0  0  0  0  0  0  0
    7.8215    2.3646    0.0000 C   0  0  0  0  0  0  0  0  0  0  0  0
    8.6704    2.3646    0.0000 C   0  0  0  0  0  0  0  0  0  0  0  0
  1  2  1  0  0  0  0 
  2  3  1  0  0  0  0 
  3  4  1  0  0  0  0 
  4  5  1  0  0  0  0 
  5  6  1  0  0  0  0 
  6  7  1  0  0  0  0 
  6  8  2  0  0  0  0 
  6  9  2  0  0  0  0 
  7 10  1  0  0  0  0 
 10 11  1  0  0  0  0 
 12 11  1  0  0  0  0 
 13 12  1  0  0  0  0 
M  END
> <Name>
Sulfuric acid, dibutyl ester

> <Source>
NIST2DMolFile

> <Tox>
3.621

> <CAS>
625-22-9

$$$$

  CDK

 10 10  0  0  0  0  0  0  0  0999 V2000
    2.9819    0.8740    0.0000 C   0  0  0  0  0  0  0  0  0  0  0  0
    2.0050    0.8740    0.0000 C   0  0  0  0  0  0  0  0  0  0  0  0
    3.4960    1.6966    0.0000 C   0  0  0  0  0  0  0  0  0  0  0  0
    3.4960    0.0000    0.0000 C   0  0  0  0  0  0  0  0  0  0  0  0
    1.4909    1.6966    0.0000 C   0  0  0  0  0  0  0  0  0  0  0  0
    2.9819    2.6220    0.0000 C   0  0  0  0  0  0  0  0  0  0  0  0
    4.5242    0.0000    0.0000 O   0  0  0  0  0  0  0  0  0  0  0  0
    2.0050    2.6220    0.0000 C   0  0  0  0  0  0  0  0  0  0  0  0
    0.5141    1.6966    0.0000 C   0  0  0  0  0  0  0  0  0  0  0  0
    0.0000    0.8740    0.0000 O   0  0  0  0  0  0  0  0  0  0  0  0
  2  1  2  0  0  0  0 
  1  3  1  0  0  0  0 
  1  4  1  0  0  0  0 
  5  2  1  0  0  0  0 
  3  6  2  0  0  0  0 
  4  7  2  0  0  0  0 
  8  5  2  0  0  0  0 
  5  9  1  0  0  0  0 
  6  8  1  0  0  0  0 
  9 10  2  0  0  0  0 
M  END
> <Name>
1,3-Benzenedicarboxaldehyde (9CI)

> <Source>
NIST2DMolFile

> <Tox>
3.180

> <CAS>
626-19-7

$$$$

  CDK

  9  9  0  0  0  0  0  0  0  0999 V2000
    0.0000   -3.9949    0.0000 N   0  0  0  0  0  0  0  0  0  0  0  0
    1.1552   -3.3368    0.0000 C   0  0  0  0  0  0  0  0  0  0  0  0
    1.1552   -2.0067    0.0000 C   0  0  0  0  0  0  0  0  0  0  0  0
    2.3104   -3.9949    0.0000 C   0  0  0  0  0  0  0  0  0  0  0  0
    2.3104   -1.3347    0.0000 C   0  0  0  0  0  0  0  0  0  0  0  0
    3.4656   -3.3368    0.0000 C   0  0  0  0  0  0  0  0  0  0  0  0
    3.4656   -2.0067    0.0000 C   0  0  0  0  0  0  0  0  0  0  0  0
    2.3104   -0.0000    0.0000 Cl  0  0  0  0  0  0  0  0  0  0  0  0
    4.6025   -3.9949    0.0000 Cl  0  0  0  0  0  0  0  0  0  0  0  0
  1  2  1  0  0  0  0 
  2  3  2  0  0  0  0 
  2  4  1  0  0  0  0 
  3  5  1  0  0  0  0 
  4  6  2  0  0  0  0 
  5  7  2  0  0  0  0 
  5  8  1  0  0  0  0 
  6  7  1  0  0  0  0 
  6  9  1  0  0  0  0 
M  END
> <Name>
Benzenamine, 3,5-dichloro-

> <Source>
DSSTox2DMolFile

> <Tox>
3.710

> <CAS>
626-43-7

$$$$

  CDK

  7  7  0  0  0  0  0  0  0  0999 V2000
    0.0000    1.4705    0.0000 C   0  0  0  0  0  0  0  0  0  0  0  0
    0.9127    1.9776    0.0000 C   0  0  0  0  0  0  0  0  0  0  0  0
    0.0000    0.5071    0.0000 C   0  0  0  0  0  0  0  0  0  0  0  0
    1.7748    1.4705    0.0000 C   0  0  0  0  0  0  0  0  0  0  0  0
    0.9127    0.0000    0.0000 N   0  0  0  0  0  0  0  0  0  0  0  0
    1.7748    0.5071    0.0000 C   0  0  0  0  0  0  0  0  0  0  0  0
    2.5861    2.0283    0.0000 Cl  0  0  0  0  0  0  0  0  0  0  0  0
  1  2  2  0  0  0  0 
  3  1  1  0  0  0  0 
  2  4  1  0  0  0  0 
  5  3  2  0  0  0  0 
  4  6  2  0  0  0  0 
  4  7  1  0  0  0  0 
  6  5  1  0  0  0  0 
M  END
> <Name>
Pyridine, 3-chloro-

> <Source>
NIST2DMolFile

> <Tox>
2.290

> <CAS>
626-60-8

$$$$

  CDK

  7  6  0  0  0  0  0  0  0  0999 V2000
    1.7000    1.5000    0.0000 O   0  0  0  0  0  0  0  0  0  0  0  0
    0.8500    1.0000    0.0000 C   0  0  0  0  0  0  0  0  0  0  0  0
    2.6000    1.0000    0.0000 C   0  0  0  0  0  0  0  0  0  0  0  0
    0.8500    0.0000    0.0000 C   0  0  0  0  0  0  0  0  0  0  0  0
    0.0000    1.5000    0.0000 O   0  0  0  0  0  0  0  0  0  0  0  0
    3.4000    1.5000    0.0000 C   0  0  0  0  0  0  0  0  0  0  0  0
    4.3000    2.0500    0.0000 C   0  0  0  0  0  0  0  0  0  0  0  0
  1  2  1  0  0  0  0 
  1  3  1  0  0  0  0 
  2  4  1  0  0  0  0 
  2  5  2  0  0  0  0 
  3  6  1  0  0  0  0 
  6  7  3  0  0  0  0 
M  END
> <Name>
2-Propyn-1-ol, acetate

> <Source>
NIST2DMolFile

> <Tox>
1.834

> <CAS>
627-09-8

$$$$

  CDK

  8  7  0  0  0  0  0  0  0  0999 V2000
    1.7491    1.4992    0.0000 C   0  0  0  0  0  0  0  0  0  0  0  0
    2.5986    0.9995    0.0000 C   0  0  0  0  0  0  0  0  0  0  0  0
    0.8495    0.9995    0.0000 N   0  0  0  0  0  0  0  0  0  0  0  0
    3.4482    1.4992    0.0000 C   0  0  0  0  0  0  0  0  0  0  0  0
    0.8495    0.0000    0.0000 O   0  0  0  0  0  0  0  0  0  0  0  0
    0.0000    1.4992    0.0000 O   0  0  0  0  0  0  0  0  0  0  0  0
    4.3477    0.9995    0.0000 C   0  0  0  0  0  0  0  0  0  0  0  0
    5.1972    1.4992    0.0000 C   0  0  0  0  0  0  0  0  0  0  0  0
  1  2  1  0  0  0  0 
  1  3  1  0  0  0  0 
  2  4  1  0  0  0  0 
  3  5  2  0  0  0  0 
  3  6  2  0  0  0  0 
  4  7  1  0  0  0  0 
  7  8  1  0  0  0  0 
M  END
> <Name>
Pentane, 1-nitro- (8CI)(9CI)

> <Source>
NIST2DMolFile

> <Tox>
2.590

> <CAS>
628-05-7

$$$$

  CDK

  8  7  0  0  0  0  0  0  0  0999 V2000
    0.0000    0.0000    0.0000 Br  0  0  0  0  0  0  0  0  0  0  0  0
    0.8565    0.5038    0.0000 C   0  0  0  0  0  0  0  0  0  0  0  0
    1.7129    0.0000    0.0000 C   0  0  0  0  0  0  0  0  0  0  0  0
    2.5694    0.5038    0.0000 C   0  0  0  0  0  0  0  0  0  0  0  0
    3.4763    0.0000    0.0000 C   0  0  0  0  0  0  0  0  0  0  0  0
    4.3327    0.5038    0.0000 C   0  0  0  0  0  0  0  0  0  0  0  0
    5.2396    0.0000    0.0000 C   0  0  0  0  0  0  0  0  0  0  0  0
    6.0457    0.5038    0.0000 Br  0  0  0  0  0  0  0  0  0  0  0  0
  1  2  1  0  0  0  0 
  2  3  1  0  0  0  0 
  3  4  1  0  0  0  0 
  4  5  1  0  0  0  0 
  5  6  1  0  0  0  0 
  7  6  1  0  0  0  0 
  8  7  1  0  0  0  0 
M  END
> <Name>
Hexane, 1,6-dibromo-

> <Source>
NIST2DMolFile

> <Tox>
4.046

> <CAS>
629-03-8

$$$$

  CDK

  8  7  0  0  0  0  0  0  0  0999 V2000
    0.0000    0.0000    0.0000 C   0  0  0  0  0  0  0  0  0  0  0  0
    0.8532    0.5019    0.0000 C   0  0  0  0  0  0  0  0  0  0  0  0
    1.7567    0.0000    0.0000 C   0  0  0  0  0  0  0  0  0  0  0  0
    2.6099    0.5019    0.0000 C   0  0  0  0  0  0  0  0  0  0  0  0
    3.4130    0.0000    0.0000 C   0  0  0  0  0  0  0  0  0  0  0  0
    4.3164    0.5019    0.0000 C   0  0  0  0  0  0  0  0  0  0  0  0
    5.1696    0.0000    0.0000 C   0  0  0  0  0  0  0  0  0  0  0  0
    6.0229    0.5521    0.0000 Cl  0  0  0  0  0  0  0  0  0  0  0  0
  1  2  1  0  0  0  0 
  2  3  1  0  0  0  0 
  3  4  1  0  0  0  0 
  4  5  1  0  0  0  0 
  5  6  1  0  0  0  0 
  6  7  1  0  0  0  0 
  7  8  1  0  0  0  0 
M  END
> <Name>
1-chloroheptane

> <Source>
NIST2DMolFile

> <Tox>
4.360

> <CAS>
629-06-1

$$$$

  CDK

  8  7  0  0  0  0  0  0  0  0999 V2000
    1.1732   -0.0000    0.0000 C   0  0  0  0  0  0  0  0  0  0  0  0
    2.3382   -0.6436    0.0000 C   0  0  0  0  0  0  0  0  0  0  0  0
    0.0000   -0.6436    0.0000 O   0  0  0  0  0  0  0  0  0  0  0  0
    3.4788   -0.0000    0.0000 C   0  0  0  0  0  0  0  0  0  0  0  0
    4.6357   -0.6436    0.0000 C   0  0  0  0  0  0  0  0  0  0  0  0
    5.8089   -0.0000    0.0000 C   0  0  0  0  0  0  0  0  0  0  0  0
    6.9740   -0.6436    0.0000 C   0  0  0  0  0  0  0  0  0  0  0  0
    8.1472   -0.0000    0.0000 O   0  0  0  0  0  0  0  0  0  0  0  0
  1  2  1  0  0  0  0 
  1  3  1  0  0  0  0 
  2  4  1  0  0  0  0 
  4  5  1  0  0  0  0 
  5  6  1  0  0  0  0 
  6  7  1  0  0  0  0 
  7  8  1  0  0  0  0 
M  END
> <Name>
1,6-Hexanediol

> <Source>
DSSTox2DMolFile

> <Tox>
1.505

> <CAS>
629-11-8

$$$$

  CDK

 11 11  0  0  0  0  0  0  0  0999 V2000
    2.4450    0.9169    0.0000 C   0  0  0  0  0  0  0  0  0  0  0  0
    1.4772    0.9169    0.0000 C   0  0  0  0  0  0  0  0  0  0  0  0
    2.9543    1.7828    0.0000 C   0  0  0  0  0  0  0  0  0  0  0  0
    2.9543    0.0000    0.0000 Cl  0  0  0  0  0  0  0  0  0  0  0  0
    1.0187    1.7828    0.0000 C   0  0  0  0  0  0  0  0  0  0  0  0
    0.9678    0.0509    0.0000 Cl  0  0  0  0  0  0  0  0  0  0  0  0
    2.4450    2.6487    0.0000 C   0  0  0  0  0  0  0  0  0  0  0  0
    3.9731    1.7828    0.0000 Cl  0  0  0  0  0  0  0  0  0  0  0  0
    1.4772    2.6487    0.0000 C   0  0  0  0  0  0  0  0  0  0  0  0
    0.0000    1.7828    0.0000 N   0  0  0  0  0  0  0  0  0  0  0  0
    2.9543    3.5146    0.0000 Cl  0  0  0  0  0  0  0  0  0  0  0  0
  2  1  2  0  0  0  0 
  1  3  1  0  0  0  0 
  1  4  1  0  0  0  0 
  5  2  1  0  0  0  0 
  2  6  1  0  0  0  0 
  3  7  2  0  0  0  0 
  3  8  1  0  0  0  0 
  9  5  2  0  0  0  0 
  5 10  1  0  0  0  0 
  7  9  1  0  0  0  0 
  7 11  1  0  0  0  0 
M  END
> <Name>
Benzenamine, 2,3,4,5-tetrachloro-

> <Source>
NIST2DMolFile

> <Tox>
4.960

> <CAS>
634-83-3

$$$$

  CDK

 10 10  0  0  0  0  0  0  0  0999 V2000
    2.9989    3.4487    0.0000 Cl  0  0  0  0  0  0  0  0  0  0  0  0
    2.4991    2.5990    0.0000 C   0  0  0  0  0  0  0  0  0  0  0  0
    2.9989    1.7493    0.0000 C   0  0  0  0  0  0  0  0  0  0  0  0
    1.4994    2.5990    0.0000 C   0  0  0  0  0  0  0  0  0  0  0  0
    3.9985    1.7493    0.0000 Cl  0  0  0  0  0  0  0  0  0  0  0  0
    2.4991    0.8497    0.0000 C   0  0  0  0  0  0  0  0  0  0  0  0
    0.9996    1.7493    0.0000 C   0  0  0  0  0  0  0  0  0  0  0  0
    1.4994    0.8497    0.0000 C   0  0  0  0  0  0  0  0  0  0  0  0
    0.0000    1.7493    0.0000 N   0  0  0  0  0  0  0  0  0  0  0  0
    0.9996    0.0000    0.0000 Cl  0  0  0  0  0  0  0  0  0  0  0  0
  1  2  1  0  0  0  0 
  3  2  2  0  0  0  0 
  2  4  1  0  0  0  0 
  5  3  1  0  0  0  0 
  6  3  1  0  0  0  0 
  4  7  2  0  0  0  0 
  8  6  2  0  0  0  0 
  7  8  1  0  0  0  0 
  9  7  1  0  0  0  0 
 10  8  1  0  0  0  0 
M  END
> <Name>
Aniline, 2,4,5-trichloro- (8CI)

> <Source>
NIST2DMolFile

> <Tox>
4.300

> <CAS>
636-30-6

$$$$

  CDK

  9  8  0  0  0  0  0  0  0  0999 V2000
    3.3271   -0.0000    0.0000 C   0  0  0  0  0  0  0  0  0  0  0  0
    1.9962   -0.0000    0.0000 C   0  0  0  0  0  0  0  0  0  0  0  0
    3.9852   -1.1553    0.0000 C   0  0  0  0  0  0  0  0  0  0  0  0
    1.3308   -1.1553    0.0000 N   0  0  0  0  0  0  0  0  0  0  0  0
    5.3160   -1.1553    0.0000 C   0  0  0  0  0  0  0  0  0  0  0  0
    0.0000   -1.1553    0.0000 O   0  0  0  0  0  0  0  0  0  0  0  0
    1.9962   -2.3033    0.0000 O   0  0  0  0  0  0  0  0  0  0  0  0
    5.9814   -2.3033    0.0000 C   0  0  0  0  0  0  0  0  0  0  0  0
    7.3122   -2.3033    0.0000 C   0  0  0  0  0  0  0  0  0  0  0  0
  1  2  1  0  0  0  0 
  1  3  1  0  0  0  0 
  2  4  1  0  0  0  0 
  3  5  1  0  0  0  0 
  4  6  2  0  0  0  0 
  4  7  1  0  0  0  0 
  5  8  1  0  0  0  0 
  8  9  1  0  0  0  0 
M  CHG  1   4   1
M  CHG  1   7  -1
M  END
> <Name>
Hexane, 1-nitro-

> <Source>
DSSTox2DMolFile

> <Tox>
3.040

> <CAS>
646-14-0

$$$$

  CDK

 11 11  0  0  0  0  0  0  0  0999 V2000
    1.9739   -1.3139    0.3802 S   0  0  0  0  0  0  0  0  0  0  0  0
    0.7477   -0.2157   -0.0921 C   0  0  0  0  0  0  0  0  0  0  0  0
    3.1834   -0.1110    0.2319 C   0  0  0  0  0  0  0  0  0  0  0  0
   -0.6025   -0.6722   -0.1651 C   0  0  0  0  0  0  0  0  0  0  0  0
    1.2511    1.0390   -0.3562 C   0  0  0  0  0  0  0  0  0  0  0  0
    2.6623    1.0996   -0.1686 C   0  0  0  0  0  0  0  0  0  0  0  0
   -0.8962   -1.8675   -0.4428 O   0  0  0  0  0  0  0  0  0  0  0  0
   -1.7864    0.2711    0.0937 C   0  0  0  0  0  0  0  0  0  0  0  0
   -1.3625    1.5272    0.3840 F   0  0  0  0  0  0  0  0  0  0  0  0
   -2.5938    0.3598   -0.9937 F   0  0  0  0  0  0  0  0  0  0  0  0
   -2.5771   -0.1165    1.1287 F   0  0  0  0  0  0  0  0  0  0  0  0
  1  2  1  0  0  0  0 
  1  3  1  0  0  0  0 
  2  4  1  0  0  0  0 
  2  5  2  0  0  0  0 
  6  3  2  0  0  0  0 
  7  4  2  0  0  0  0 
  4  8  1  0  0  0  0 
  5  6  1  0  0  0  0 
  9  8  1  0  0  0  0 
 10  8  1  0  0  0  0 
 11  8  1  0  0  0  0 
M  END
> <Name>
2,2,2-trifluoro-1-thiophen-2-ylethanone

> <Source>
Chemidplus3DMolFile

> <Tox>
2.900

> <CAS>
651-70-7

$$$$

  CDK

  9  9  0  0  0  0  0  0  0  0999 V2000
    2.7158   -1.0427    0.0001 C   0  0  0  0  0  0  0  0  0  0  0  0
    1.3173   -0.4813   -0.0015 C   0  0  0  0  0  0  0  0  0  0  0  0
    0.2040   -1.3392    0.0004 C   0  0  0  0  0  0  0  0  0  0  0  0
    1.1126    0.8672    0.0008 C   0  0  0  0  0  0  0  0  0  0  0  0
   -1.0432   -0.8235   -0.0006 C   0  0  0  0  0  0  0  0  0  0  0  0
   -0.2057    1.3579   -0.0003 C   0  0  0  0  0  0  0  0  0  0  0  0
   -2.2304   -1.7518    0.0020 C   0  0  0  0  0  0  0  0  0  0  0  0
   -1.2416    0.5023   -0.0035 O   0  0  0  0  0  0  0  0  0  0  0  0
   -0.4084    2.5602    0.0018 O   0  0  0  0  0  0  0  0  0  0  0  0
  1  2  1  0  0  0  0 
  2  3  1  0  0  0  0 
  2  4  2  0  0  0  0 
  3  5  2  0  0  0  0 
  4  6  1  0  0  0  0 
  5  7  1  0  0  0  0 
  5  8  1  0  0  0  0 
  6  9  2  0  0  0  0 
  6  8  1  0  0  0  0 
M  END
> <Name>
4,6-dimethylpyran-2-one

> <Source>
NIH3DMolFile

> <Tox>
2.070

> <CAS>
675-09-2

$$$$

  CDK

  6  6  0  0  0  0  0  0  0  0999 V2000
    0.0000   -1.0738    0.0000 C   0  0  0  0  0  0  0  0  0  0  0  0
    1.3304   -1.0738    0.0000 C   0  0  0  0  0  0  0  0  0  0  0  0
    2.1104   -0.0000    0.0000 N   0  0  0  0  0  0  0  0  0  0  0  0
    2.1104   -2.1509    0.0000 N   0  0  0  0  0  0  0  0  0  0  0  0
    3.3767   -0.4086    0.0000 C   0  0  0  0  0  0  0  0  0  0  0  0
    3.3767   -1.7390    0.0000 C   0  0  0  0  0  0  0  0  0  0  0  0
  1  2  1  0  0  0  0 
  2  3  2  0  0  0  0 
  2  4  1  0  0  0  0 
  3  5  1  0  0  0  0 
  6  4  1  0  0  0  0 
  5  6  2  0  0  0  0 
M  END
> <Name>
1H-Imidazole, 2-methyl-

> <Source>
DSSTox2DMolFile

> <Tox>
2.090

> <CAS>
693-98-1

$$$$

  CDK

  8  8  0  0  0  0  0  0  0  0999 V2000
    0.0000    0.0000    0.0000 C   0  0  0  0  0  0  0  0  0  0  0  0
    0.4997    0.8995    0.0000 C   0  0  0  0  0  0  0  0  0  0  0  0
    1.4992    0.8995    0.0000 C   0  0  0  0  0  0  0  0  0  0  0  0
    2.0489    1.6991    0.0000 O   0  0  0  0  0  0  0  0  0  0  0  0
    2.0489    0.0999    0.0000 C   0  0  0  0  0  0  0  0  0  0  0  0
    2.9985    1.3993    0.0000 C   0  0  0  0  0  0  0  0  0  0  0  0
    2.9985    0.3998    0.0000 C   0  0  0  0  0  0  0  0  0  0  0  0
    3.8480    1.9990    0.0000 O   0  0  0  0  0  0  0  0  0  0  0  0
  1  2  1  0  0  0  0 
  2  3  1  0  0  0  0 
  4  3  1  0  0  0  0 
  3  5  1  0  0  0  0 
  6  4  1  0  0  0  0 
  5  7  1  0  0  0  0 
  7  6  1  0  0  0  0 
  6  8  2  0  0  0  0 
M  END
> <Name>
2(3H)-Furanone, 5-ethyldihydro-

> <Source>
NIST2DMolFile

> <Tox>
1.760

> <CAS>
695-06-7

$$$$

  CDK

 10 10  0  0  0  0  0  0  0  0999 V2000
    0.0072   -2.7513   -1.7979 O   0  0  0  0  0  0  0  0  0  0  0  0
   -0.1962   -2.0944   -0.6260 C   0  0  0  0  0  0  0  0  0  0  0  0
    0.4148   -1.8201   -2.6998 C   0  0  0  0  0  0  0  0  0  0  0  0
   -0.6237   -2.8868    0.4411 N   0  0  0  0  0  0  0  0  0  0  0  0
    0.0772   -0.7540   -0.7697 C   0  0  0  0  0  0  0  0  0  0  0  0
    0.4741   -0.5759   -2.1165 C   0  0  0  0  0  0  0  0  0  0  0  0
    0.6986   -2.2544   -4.0250 C   0  0  0  0  0  0  0  0  0  0  0  0
   -0.8379   -2.3603    1.5729 O   0  0  0  0  0  0  0  0  0  0  0  0
   -0.7967   -4.1304    0.2751 O   0  0  0  0  0  0  0  0  0  0  0  0
    1.0805   -1.5000   -4.9476 O   0  0  0  0  0  0  0  0  0  0  0  0
  1  2  1  0  0  0  0 
  1  3  1  0  0  0  0 
  4  2  1  0  0  0  0 
  2  5  2  0  0  0  0 
  3  6  2  0  0  0  0 
  3  7  1  0  0  0  0 
  8  4  1  0  0  0  0 
  9  4  2  0  0  0  0 
  5  6  1  0  0  0  0 
 10  7  2  0  0  0  0 
M  CHG  1   4   1
M  CHG  1   8  -1
M  END
> <Name>
5-Furancarboxaldehyde, 5-nitro- (9CI)

> <Source>
Chemidplus3DMolFile

> <Tox>
5.230

> <CAS>
698-63-5

$$$$

  CDK

 10 10  0  0  0  0  0  0  0  0999 V2000
    2.9779    1.7161    0.0000 C   0  0  0  0  0  0  0  0  0  0  0  0
    2.4732    0.8580    0.0000 C   0  0  0  0  0  0  0  0  0  0  0  0
    3.9873    1.7161    0.0000 C   0  0  0  0  0  0  0  0  0  0  0  0
    2.9779    0.0000    0.0000 C   0  0  0  0  0  0  0  0  0  0  0  0
    1.4637    0.8580    0.0000 C   0  0  0  0  0  0  0  0  0  0  0  0
    4.4921    0.8580    0.0000 C   0  0  0  0  0  0  0  0  0  0  0  0
    3.9873    0.0000    0.0000 C   0  0  0  0  0  0  0  0  0  0  0  0
    1.0094    0.0000    0.0000 C   0  0  0  0  0  0  0  0  0  0  0  0
    5.5015    0.8580    0.0000 C   0  0  0  0  0  0  0  0  0  0  0  0
    0.0000    0.0000    0.0000 O   0  0  0  0  0  0  0  0  0  0  0  0
  1  2  2  0  0  0  0 
  3  1  1  0  0  0  0 
  2  4  1  0  0  0  0 
  2  5  1  0  0  0  0 
  6  3  2  0  0  0  0 
  4  7  2  0  0  0  0 
  5  8  1  0  0  0  0 
  6  9  1  0  0  0  0 
  7  6  1  0  0  0  0 
  8 10  1  0  0  0  0 
M  END
> <Name>
Phenethyl alcohol, p-methyl- (8CI)

> <Source>
NIST2DMolFile

> <Tox>
2.740

> <CAS>
699-02-5

$$$$

  CDK

 11 11  0  0  0  0  0  0  0  0999 V2000
    3.4801    1.9886    0.0000 C   0  0  0  0  0  0  0  0  0  0  0  0
    2.5852    1.4915    0.0000 C   0  0  0  0  0  0  0  0  0  0  0  0
    1.7401    1.9886    0.0000 C   0  0  0  0  0  0  0  0  0  0  0  0
    2.5852    0.4972    0.0000 C   0  0  0  0  0  0  0  0  0  0  0  0
    1.7401    2.9830    0.0000 C   0  0  0  0  0  0  0  0  0  0  0  0
    0.8949    1.4915    0.0000 C   0  0  0  0  0  0  0  0  0  0  0  0
    3.4801    0.0000    0.0000 O   0  0  0  0  0  0  0  0  0  0  0  0
    1.7401    0.0000    0.0000 C   0  0  0  0  0  0  0  0  0  0  0  0
    0.0000    1.9886    0.0000 O   0  0  0  0  0  0  0  0  0  0  0  0
    0.8949    0.4972    0.0000 C   0  0  0  0  0  0  0  0  0  0  0  0
    0.0000    0.0000    0.0000 C   0  0  0  0  0  0  0  0  0  0  0  0
  1  2  1  0  0  0  0 
  3  2  2  0  0  0  0 
  2  4  1  0  0  0  0 
  3  5  1  0  0  0  0 
  6  3  1  0  0  0  0 
  4  7  1  0  0  0  0 
  4  8  2  0  0  0  0 
  6  9  1  0  0  0  0 
 10  6  2  0  0  0  0 
  8 10  1  0  0  0  0 
 10 11  1  0  0  0  0 
M  END
> <Name>
1,4-Benzenediol, 2,3,5-trimethyl-

> <Source>
NIST2DMolFile

> <Tox>
4.340

> <CAS>
700-13-0

$$$$

  CDK

 13 13  0  0  0  0  0  0  0  0999 V2000
    4.6532   -3.4567    0.0000 C   0  0  0  0  0  0  0  0  0  0  0  0
    5.9827   -3.4567    0.0000 C   0  0  0  0  0  0  0  0  0  0  0  0
    3.9885   -4.6067    0.0000 C   0  0  0  0  0  0  0  0  0  0  0  0
    3.9885   -2.3000    0.0000 C   0  0  0  0  0  0  0  0  0  0  0  0
    6.6474   -2.3000    0.0000 O   0  0  0  0  0  0  0  0  0  0  0  0
    4.6532   -5.7567    0.0000 O   0  0  0  0  0  0  0  0  0  0  0  0
    2.6590   -4.6067    0.0000 C   0  0  0  0  0  0  0  0  0  0  0  0
    2.6590   -2.3000    0.0000 C   0  0  0  0  0  0  0  0  0  0  0  0
    4.6532   -1.1500    0.0000 O   0  0  0  0  0  0  0  0  0  0  0  0
    1.9942   -3.4567    0.0000 C   0  0  0  0  0  0  0  0  0  0  0  0
    3.9885   -0.0000    0.0000 C   0  0  0  0  0  0  0  0  0  0  0  0
    0.6647   -3.4567    0.0000 O   0  0  0  0  0  0  0  0  0  0  0  0
    0.0000   -4.6067    0.0000 C   0  0  0  0  0  0  0  0  0  0  0  0
  1  2  1  0  0  0  0 
  1  3  2  0  0  0  0 
  1  4  1  0  0  0  0 
  2  5  2  0  0  0  0 
  3  6  1  0  0  0  0 
  3  7  1  0  0  0  0 
  8  4  2  0  0  0  0 
  4  9  1  0  0  0  0 
  7 10  2  0  0  0  0 
 10  8  1  0  0  0  0 
  9 11  1  0  0  0  0 
 10 12  1  0  0  0  0 
 12 13  1  0  0  0  0 
M  END
> <Name>
4,6-Dimethoxysalicylaldehyde

> <Source>
DSSTox2DMolFile

> <Tox>
3.617

> <CAS>
708-76-9

$$$$

  CDK

  9  9  0  0  0  0  0  0  0  0999 V2000
    2.4539   -0.0038    0.0000 C   0  0  0  0  0  0  0  0  0  0  0  0
    1.0307    0.0010    0.0000 C   0  0  0  0  0  0  0  0  0  0  0  0
    3.6139   -0.0074    0.0000 N   0  0  0  0  0  0  0  0  0  0  0  0
    0.3333   -1.2128    0.0000 C   0  0  0  0  0  0  0  0  0  0  0  0
    0.3441    1.2184    0.0000 C   0  0  0  0  0  0  0  0  0  0  0  0
   -1.0531   -1.2141    0.0000 C   0  0  0  0  0  0  0  0  0  0  0  0
   -1.0440    1.2284    0.0000 C   0  0  0  0  0  0  0  0  0  0  0  0
   -1.7395    0.0105    0.0000 C   0  0  0  0  0  0  0  0  0  0  0  0
   -3.1018   -0.0673    0.0000 O   0  0  0  0  0  0  0  0  0  0  0  0
  1  2  1  0  0  0  0 
  1  3  3  0  0  0  0 
  2  4  1  0  0  0  0 
  2  5  2  0  0  0  0 
  4  6  2  0  0  0  0 
  7  5  1  0  0  0  0 
  6  8  1  0  0  0  0 
  8  7  2  0  0  0  0 
  8  9  1  0  0  0  0 
M  END
> <Name>
Benzonitrile, 4-hydroxy-

> <Source>
DougDB3DMolFile

> <Tox>
3.520

> <CAS>
767-00-0

$$$$

  CDK

 12 12  0  0  0  0  0  0  0  0999 V2000
    0.0000   -2.3036    0.0000 N   0  0  0  0  0  0  0  0  0  0  0  0
    1.3300   -2.3036    0.0000 C   0  0  0  0  0  0  0  0  0  0  0  0
    1.9950   -1.1491    0.0000 C   0  0  0  0  0  0  0  0  0  0  0  0
    1.9950   -3.4580    0.0000 C   0  0  0  0  0  0  0  0  0  0  0  0
    1.3300   -0.0000    0.0000 F   0  0  0  0  0  0  0  0  0  0  0  0
    3.3250   -1.1491    0.0000 C   0  0  0  0  0  0  0  0  0  0  0  0
    3.3250   -3.4580    0.0000 C   0  0  0  0  0  0  0  0  0  0  0  0
    1.3300   -4.6072    0.0000 F   0  0  0  0  0  0  0  0  0  0  0  0
    3.9901   -0.0000    0.0000 F   0  0  0  0  0  0  0  0  0  0  0  0
    3.9901   -2.3036    0.0000 C   0  0  0  0  0  0  0  0  0  0  0  0
    3.9901   -4.6072    0.0000 F   0  0  0  0  0  0  0  0  0  0  0  0
    5.3201   -2.3036    0.0000 F   0  0  0  0  0  0  0  0  0  0  0  0
  1  2  1  0  0  0  0 
  2  3  2  0  0  0  0 
  2  4  1  0  0  0  0 
  3  5  1  0  0  0  0 
  3  6  1  0  0  0  0 
  7  4  2  0  0  0  0 
  4  8  1  0  0  0  0 
  6  9  1  0  0  0  0 
  6 10  2  0  0  0  0 
 10  7  1  0  0  0  0 
  7 11  1  0  0  0  0 
 10 12  1  0  0  0  0 
M  END
> <Name>
Benzenamine, 2,3,4,5,6-pentafluoro-

> <Source>
DSSTox2DMolFile

> <Tox>
3.260

> <CAS>
771-60-8

$$$$

  CDK

 14 15  0  0  0  0  0  0  0  0999 V2000
   -3.4889    0.5447   -0.0031 O   0  0  0  0  0  0  0  0  0  0  0  0
   -2.4958   -0.2175   -0.0006 N   0  0  0  0  0  0  0  0  0  0  0  0
   -2.6047   -1.4646   -0.0010 O   0  0  0  0  0  0  0  0  0  0  0  0
   -1.1906    0.3569    0.0023 C   0  0  0  0  0  0  0  0  0  0  0  0
   -0.0284   -0.4316    0.0013 C   0  0  0  0  0  0  0  0  0  0  0  0
   -1.1058    1.7495    0.0022 C   0  0  0  0  0  0  0  0  0  0  0  0
    1.2374    0.2014    0.0003 C   0  0  0  0  0  0  0  0  0  0  0  0
   -0.0948   -1.8344    0.0012 C   0  0  0  0  0  0  0  0  0  0  0  0
    0.1389    2.3720    0.0012 C   0  0  0  0  0  0  0  0  0  0  0  0
    1.3038    1.6042    0.0002 C   0  0  0  0  0  0  0  0  0  0  0  0
    2.3996   -0.5871   -0.0008 C   0  0  0  0  0  0  0  0  0  0  0  0
    1.0701   -2.6022    0.0002 C   0  0  0  0  0  0  0  0  0  0  0  0
    2.5443    2.2883   -0.0028 N   0  0  0  0  0  0  0  0  0  0  0  0
    2.3149   -1.9797   -0.0007 C   0  0  0  0  0  0  0  0  0  0  0  0
  1  2  1  0  0  0  0 
  3  2  2  0  0  0  0 
  2  4  1  0  0  0  0 
  5  4  1  0  0  0  0 
  4  6  2  0  0  0  0 
  5  7  1  0  0  0  0 
  5  8  2  0  0  0  0 
  6  9  1  0  0  0  0 
  7 10  1  0  0  0  0 
  7 11  2  0  0  0  0 
  8 12  1  0  0  0  0 
 10  9  2  0  0  0  0 
 13 10  1  0  0  0  0 
 11 14  1  0  0  0  0 
 12 14  2  0  0  0  0 
M  CHG  1   1  -1
M  CHG  1   2   1
M  END
> <Name>
4-nitronaphthalen-1-amine

> <Source>
Chemidplus3DMolFile

> <Tox>
4.120

> <CAS>
776-34-1

$$$$

  CDK

 20 22  0  0  0  0  0  0  0  0999 V2000
    5.1422   -5.9886    0.0000 C   0  0  0  0  0  0  0  0  0  0  0  0
    5.1422   -7.3220    0.0000 C   0  0  0  0  0  0  0  0  0  0  0  0
    3.9924   -5.3258    0.0000 C   0  0  0  0  0  0  0  0  0  0  0  0
    3.9924   -7.9847    0.0000 C   0  0  0  0  0  0  0  0  0  0  0  0
    2.8426   -5.9886    0.0000 C   0  0  0  0  0  0  0  0  0  0  0  0
    3.9924   -3.9924    0.0000 P   0  0  0  0  0  0  0  0  0  0  0  0
    2.8426   -7.3220    0.0000 C   0  0  0  0  0  0  0  0  0  0  0  0
    5.3258   -3.9924    0.0000 O   0  0  0  0  0  0  0  0  0  0  0  0
    2.6589   -3.9924    0.0000 C   0  0  0  0  0  0  0  0  0  0  0  0
    3.9924   -2.6589    0.0000 C   0  0  0  0  0  0  0  0  0  0  0  0
    1.9962   -5.1422    0.0000 C   0  0  0  0  0  0  0  0  0  0  0  0
    1.9962   -2.8426    0.0000 C   0  0  0  0  0  0  0  0  0  0  0  0
    2.8426   -1.9962    0.0000 C   0  0  0  0  0  0  0  0  0  0  0  0
    5.1422   -1.9962    0.0000 C   0  0  0  0  0  0  0  0  0  0  0  0
    0.6627   -5.1422    0.0000 C   0  0  0  0  0  0  0  0  0  0  0  0
    0.6627   -2.8426    0.0000 C   0  0  0  0  0  0  0  0  0  0  0  0
    2.8426   -0.6627    0.0000 C   0  0  0  0  0  0  0  0  0  0  0  0
    5.1422   -0.6627    0.0000 C   0  0  0  0  0  0  0  0  0  0  0  0
    0.0000   -3.9924    0.0000 C   0  0  0  0  0  0  0  0  0  0  0  0
    3.9924   -0.0000    0.0000 C   0  0  0  0  0  0  0  0  0  0  0  0
  1  2  2  0  0  0  0 
  1  3  1  0  0  0  0 
  2  4  1  0  0  0  0 
  5  3  2  0  0  0  0 
  3  6  1  0  0  0  0 
  4  7  2  0  0  0  0 
  7  5  1  0  0  0  0 
  6  8  2  0  0  0  0 
  6  9  1  0  0  0  0 
  6 10  1  0  0  0  0 
  9 11  2  0  0  0  0 
  9 12  1  0  0  0  0 
 10 13  2  0  0  0  0 
 10 14  1  0  0  0  0 
 11 15  1  0  0  0  0 
 16 12  2  0  0  0  0 
 13 17  1  0  0  0  0 
 18 14  2  0  0  0  0 
 15 19  2  0  0  0  0 
 19 16  1  0  0  0  0 
 17 20  2  0  0  0  0 
 20 18  1  0  0  0  0 
M  END
> <Name>
Phosphine oxide, triphenyl-

> <Source>
DSSTox2DMolFile

> <Tox>
3.770

> <CAS>
791-28-6

$$$$

  CDK

  6  5  0  0  0  0  0  0  0  0999 V2000
    0.0000   -0.6630    0.0000 Br  0  0  0  0  0  0  0  0  0  0  0  0
    1.1530   -0.0000    0.0000 C   0  0  0  0  0  0  0  0  0  0  0  0
    2.3060   -0.6630    0.0000 C   0  0  0  0  0  0  0  0  0  0  0  0
    3.4590   -0.0000    0.0000 C   0  0  0  0  0  0  0  0  0  0  0  0
    4.6119   -0.6630    0.0000 C   0  0  0  0  0  0  0  0  0  0  0  0
    5.7649   -0.0000    0.0000 Br  0  0  0  0  0  0  0  0  0  0  0  0
  1  2  1  0  0  0  0 
  2  3  1  0  0  0  0 
  3  4  2  0  0  0  0 
  4  5  1  0  0  0  0 
  5  6  1  0  0  0  0 
M  END
> <Name>
2-Butene, 1,4-dibromo-, trans-

> <Source>
DSSTox2DMolFile

> <Tox>
4.925

> <CAS>
821-06-7

$$$$

  CDK

  7  6  0  0  0  0  0  0  0  0999 V2000
    0.0000    0.0000    0.0000 O   0  0  0  0  0  0  0  0  0  0  0  0
    0.8704    0.4608    0.0000 C   0  0  0  0  0  0  0  0  0  0  0  0
    1.7408    0.0000    0.0000 C   0  0  0  0  0  0  0  0  0  0  0  0
    2.6623    0.4608    0.0000 C   0  0  0  0  0  0  0  0  0  0  0  0
    3.5327    0.0000    0.0000 C   0  0  0  0  0  0  0  0  0  0  0  0
    4.4543    0.4608    0.0000 C   0  0  0  0  0  0  0  0  0  0  0  0
    5.3247    0.0000    0.0000 C   0  0  0  0  0  0  0  0  0  0  0  0
  1  2  1  0  0  0  0 
  2  3  1  0  0  0  0 
  3  4  1  0  0  0  0 
  4  5  1  0  0  0  0 
  5  6  1  0  0  0  0 
  6  7  2  0  0  0  0 
M  END
> <Name>
Hex-5-en-1-ol

> <Source>
NIST2DMolFile

> <Tox>
2.159

> <CAS>
821-41-0

$$$$

  CDK

  9  9  0  0  0  0  0  0  0  0999 V2000
    2.4411    0.0000    0.0000 C   0  0  0  0  0  0  0  0  0  0  0  0
    1.0193   -0.0006    0.0000 C   0  0  0  0  0  0  0  0  0  0  0  0
    3.6015    0.0006    0.0000 N   0  0  0  0  0  0  0  0  0  0  0  0
    0.3235   -1.2146    0.0000 C   0  0  0  0  0  0  0  0  0  0  0  0
    0.3241    1.2137    0.0000 C   0  0  0  0  0  0  0  0  0  0  0  0
   -1.0610   -1.2189    0.0000 C   0  0  0  0  0  0  0  0  0  0  0  0
   -1.0604    1.2188    0.0000 C   0  0  0  0  0  0  0  0  0  0  0  0
   -1.7660    0.0002    0.0000 C   0  0  0  0  0  0  0  0  0  0  0  0
   -3.1603    0.0007    0.0000 N   0  0  0  0  0  0  0  0  0  0  0  0
  1  2  1  0  0  0  0 
  1  3  3  0  0  0  0 
  2  4  1  0  0  0  0 
  2  5  2  0  0  0  0 
  4  6  2  0  0  0  0 
  7  5  1  0  0  0  0 
  6  8  1  0  0  0  0 
  8  7  2  0  0  0  0 
  8  9  1  0  0  0  0 
M  END
> <Name>
Benzonitrile, p-amino- (8CI)

> <Source>
DougDB3DMolFile

> <Tox>
3.240

> <CAS>
873-74-5

$$$$

  CDK

 10 10  0  0  0  0  0  0  0  0999 V2000
    3.4788    0.8945    0.0000 C   0  0  0  0  0  0  0  0  0  0  0  0
    2.9818    0.0000    0.0000 C   0  0  0  0  0  0  0  0  0  0  0  0
    2.9818    1.7394    0.0000 C   0  0  0  0  0  0  0  0  0  0  0  0
    4.4727    0.8945    0.0000 C   0  0  0  0  0  0  0  0  0  0  0  0
    1.9879    0.0000    0.0000 C   0  0  0  0  0  0  0  0  0  0  0  0
    1.9879    1.7394    0.0000 C   0  0  0  0  0  0  0  0  0  0  0  0
    5.4667    0.8945    0.0000 N   0  0  0  0  0  0  0  0  0  0  0  0
    1.4909    0.8945    0.0000 C   0  0  0  0  0  0  0  0  0  0  0  0
    0.4970    0.8945    0.0000 O   0  0  0  0  0  0  0  0  0  0  0  0
    0.0000    0.0000    0.0000 C   0  0  0  0  0  0  0  0  0  0  0  0
  1  2  2  0  0  0  0 
  3  1  1  0  0  0  0 
  1  4  1  0  0  0  0 
  2  5  1  0  0  0  0 
  6  3  2  0  0  0  0 
  4  7  3  0  0  0  0 
  5  8  2  0  0  0  0 
  8  6  1  0  0  0  0 
  8  9  1  0  0  0  0 
  9 10  1  0  0  0  0 
M  END
> <Name>
p-Anisonitrile (8CI)

> <Source>
NIST2DMolFile

> <Tox>
3.100

> <CAS>
874-90-8

$$$$

  CDK

  5  4  0  0  0  0  0  0  0  0999 V2000
    3.3250   -0.0000    0.0000 C   0  0  0  0  0  0  0  0  0  0  0  0
    4.6568   -0.0000    0.0000 O   0  0  0  0  0  0  0  0  0  0  0  0
    2.6590   -1.1502    0.0000 C   0  0  0  0  0  0  0  0  0  0  0  0
    1.3319   -1.1502    0.0000 C   0  0  0  0  0  0  0  0  0  0  0  0
    0.0000   -1.1502    0.0000 C   0  0  0  0  0  0  0  0  0  0  0  0
  1  2  1  0  0  0  0 
  1  3  1  0  0  0  0 
  3  4  1  0  0  0  0 
  4  5  3  0  0  0  0 
M  END
> <Name>
But-3-yn-1-ol

> <Source>
DSSTox2DMolFile

> <Tox>
1.161

> <CAS>
927-74-2

$$$$

  CDK

 11 10  0  0  0  0  0  0  0  0999 V2000
    0.0000    0.9994    0.0000 C   0  0  0  0  0  0  0  0  0  0  0  0
    0.8495    1.4992    0.0000 C   0  0  0  0  0  0  0  0  0  0  0  0
    1.6990    0.9994    0.0000 C   0  0  0  0  0  0  0  0  0  0  0  0
    2.5985    1.4992    0.0000 C   0  0  0  0  0  0  0  0  0  0  0  0
    1.6990    0.0000    0.0000 O   0  0  0  0  0  0  0  0  0  0  0  0
    3.4481    0.9994    0.0000 C   0  0  0  0  0  0  0  0  0  0  0  0
    4.2976    1.4992    0.0000 C   0  0  0  0  0  0  0  0  0  0  0  0
    5.1971    0.9994    0.0000 C   0  0  0  0  0  0  0  0  0  0  0  0
    6.0466    1.4992    0.0000 C   0  0  0  0  0  0  0  0  0  0  0  0
    6.8961    0.9994    0.0000 C   0  0  0  0  0  0  0  0  0  0  0  0
    7.7956    1.4992    0.0000 C   0  0  0  0  0  0  0  0  0  0  0  0
  1  2  1  0  0  0  0 
  2  3  1  0  0  0  0 
  3  4  1  0  0  0  0 
  3  5  2  0  0  0  0 
  4  6  1  0  0  0  0 
  6  7  1  0  0  0  0 
  7  8  1  0  0  0  0 
  8  9  1  0  0  0  0 
  9 10  1  0  0  0  0 
 10 11  1  0  0  0  0 
M  END
> <Name>
3-Decanone

> <Source>
NIST2DMolFile

> <Tox>
3.627

> <CAS>
928-80-3

$$$$

  CDK

  7  6  0  0  0  0  0  0  0  0999 V2000
    2.5398    0.4980    0.0000 C   0  0  0  0  0  0  0  0  0  0  0  0
    1.6932    0.0000    0.0000 C   0  0  0  0  0  0  0  0  0  0  0  0
    3.4362    0.0000    0.0000 C   0  0  0  0  0  0  0  0  0  0  0  0
    0.8466    0.4980    0.0000 C   0  0  0  0  0  0  0  0  0  0  0  0
    4.2827    0.4980    0.0000 C   0  0  0  0  0  0  0  0  0  0  0  0
    0.8466    1.5438    0.0000 C   0  0  0  0  0  0  0  0  0  0  0  0
    0.0000    2.0418    0.0000 O   0  0  0  0  0  0  0  0  0  0  0  0
  1  2  1  0  0  0  0 
  1  3  1  0  0  0  0 
  2  4  2  0  0  0  0 
  3  5  1  0  0  0  0 
  4  6  1  0  0  0  0 
  6  7  1  0  0  0  0 
M  END
> <Name>
(Z)-hex-2-en-1-ol

> <Source>
NIST2DMolFile

> <Tox>
2.223

> <CAS>
928-94-9

$$$$

  CDK

  7  6  0  0  0  0  0  0  0  0999 V2000
    0.0000   -0.6638    0.0000 C   0  0  0  0  0  0  0  0  0  0  0  0
    1.1548   -0.0000    0.0000 C   0  0  0  0  0  0  0  0  0  0  0  0
    2.3027   -0.6638    0.0000 C   0  0  0  0  0  0  0  0  0  0  0  0
    3.4575   -0.0000    0.0000 C   0  0  0  0  0  0  0  0  0  0  0  0
    4.6122   -0.6638    0.0000 C   0  0  0  0  0  0  0  0  0  0  0  0
    5.7601   -0.0000    0.0000 C   0  0  0  0  0  0  0  0  0  0  0  0
    6.9149   -0.6638    0.0000 O   0  0  0  0  0  0  0  0  0  0  0  0
  1  2  1  0  0  0  0 
  2  3  1  0  0  0  0 
  3  4  2  0  0  0  0 
  4  5  1  0  0  0  0 
  5  6  1  0  0  0  0 
  6  7  1  0  0  0  0 
M  END
> <Name>
3-Hexen-1-ol, (3E)-

> <Source>
DSSTox2DMolFile

> <Tox>
2.223

> <CAS>
928-97-2

$$$$

  CDK

  6  6  0  0  0  0  0  0  0  0999 V2000
    0.0000    0.8089    0.0000 Cl  0  0  0  0  0  0  0  0  0  0  0  0
    1.0111    0.8089    0.0000 C   0  0  0  0  0  0  0  0  0  0  0  0
    1.5672    0.0000    0.0000 C   0  0  0  0  0  0  0  0  0  0  0  0
    1.5672    1.6178    0.0000 C   0  0  0  0  0  0  0  0  0  0  0  0
    2.5277    0.3033    0.0000 C   0  0  0  0  0  0  0  0  0  0  0  0
    2.5277    1.3144    0.0000 C   0  0  0  0  0  0  0  0  0  0  0  0
  1  2  1  0  0  0  0 
  2  3  1  0  0  0  0 
  4  2  1  0  0  0  0 
  3  5  1  0  0  0  0 
  6  4  1  0  0  0  0 
  5  6  1  0  0  0  0 
M  END
> <Name>
chlorocyclopentane

> <Source>
NIST2DMolFile

> <Tox>
2.650

> <CAS>
930-28-9

$$$$

  CDK

 10 10  0  0  0  0  0  0  0  0999 V2000
    3.9887   -4.6056    0.0000 O   0  0  0  0  0  0  0  0  0  0  0  0
    3.3239   -3.4568    0.0000 C   0  0  0  0  0  0  0  0  0  0  0  0
    1.9943   -3.4568    0.0000 C   0  0  0  0  0  0  0  0  0  0  0  0
    3.9887   -2.3028    0.0000 C   0  0  0  0  0  0  0  0  0  0  0  0
    1.3296   -2.3028    0.0000 C   0  0  0  0  0  0  0  0  0  0  0  0
    3.3239   -1.1487    0.0000 C   0  0  0  0  0  0  0  0  0  0  0  0
    5.3182   -2.3028    0.0000 Cl  0  0  0  0  0  0  0  0  0  0  0  0
    0.0000   -2.3028    0.0000 Cl  0  0  0  0  0  0  0  0  0  0  0  0
    1.9943   -1.1487    0.0000 C   0  0  0  0  0  0  0  0  0  0  0  0
    3.9887   -0.0000    0.0000 Cl  0  0  0  0  0  0  0  0  0  0  0  0
  1  2  1  0  0  0  0 
  2  3  2  0  0  0  0 
  2  4  1  0  0  0  0 
  3  5  1  0  0  0  0 
  6  4  2  0  0  0  0 
  4  7  1  0  0  0  0 
  5  8  1  0  0  0  0 
  5  9  2  0  0  0  0 
  9  6  1  0  0  0  0 
  6 10  1  0  0  0  0 
M  END
> <Name>
Phenol, 2,3,5-trichloro-

> <Source>
DSSTox2DMolFile

> <Tox>
5.370

> <CAS>
933-78-8

$$$$

  CDK

 13 13  0  0  0  0  0  0  0  0999 V2000
    1.7575    0.5021    0.0000 C   0  0  0  0  0  0  0  0  0  0  0  0
    1.7575    1.5064    0.0000 C   0  0  0  0  0  0  0  0  0  0  0  0
    0.8536    0.0000    0.0000 C   0  0  0  0  0  0  0  0  0  0  0  0
    0.8536    2.0085    0.0000 C   0  0  0  0  0  0  0  0  0  0  0  0
    0.0000    0.5021    0.0000 C   0  0  0  0  0  0  0  0  0  0  0  0
    0.0000    1.5064    0.0000 C   0  0  0  0  0  0  0  0  0  0  0  0
    0.8536    3.0128    0.0000 C   0  0  0  0  0  0  0  0  0  0  0  0
    1.7575    3.4647    0.0000 C   0  0  0  0  0  0  0  0  0  0  0  0
    0.0000    3.5150    0.0000 O   0  0  0  0  0  0  0  0  0  0  0  0
    2.5609    2.9626    0.0000 C   0  0  0  0  0  0  0  0  0  0  0  0
    3.4145    3.4647    0.0000 C   0  0  0  0  0  0  0  0  0  0  0  0
    4.3184    2.9626    0.0000 C   0  0  0  0  0  0  0  0  0  0  0  0
    5.1720    3.4145    0.0000 C   0  0  0  0  0  0  0  0  0  0  0  0
  2  1  2  0  0  0  0 
  1  3  1  0  0  0  0 
  4  2  1  0  0  0  0 
  3  5  2  0  0  0  0 
  6  4  2  0  0  0  0 
  4  7  1  0  0  0  0 
  5  6  1  0  0  0  0 
  7  8  1  0  0  0  0 
  7  9  2  0  0  0  0 
 10  8  1  0  0  0  0 
 11 10  1  0  0  0  0 
 12 11  1  0  0  0  0 
 13 12  1  0  0  0  0 
M  END
> <Name>
1-Hexanone, 1-phenyl-

> <Source>
NIST2DMolFile

> <Tox>
4.190

> <CAS>
942-92-7

$$$$

  CDK

  8  7  0  0  0  0  0  0  0  0999 V2000
    3.4451    0.4993    0.0000 C   0  0  0  0  0  0  0  0  0  0  0  0
    2.5963    0.0000    0.0000 C   0  0  0  0  0  0  0  0  0  0  0  0
    4.2939    0.9986    0.0000 C   0  0  0  0  0  0  0  0  0  0  0  0
    1.7475    0.4993    0.0000 C   0  0  0  0  0  0  0  0  0  0  0  0
    5.1926    1.4479    0.0000 C   0  0  0  0  0  0  0  0  0  0  0  0
    0.8987    0.0000    0.0000 C   0  0  0  0  0  0  0  0  0  0  0  0
    6.0913    0.9486    0.0000 O   0  0  0  0  0  0  0  0  0  0  0  0
    0.0000    0.4993    0.0000 C   0  0  0  0  0  0  0  0  0  0  0  0
  1  2  1  0  0  0  0 
  1  3  3  0  0  0  0 
  2  4  1  0  0  0  0 
  3  5  1  0  0  0  0 
  4  6  1  0  0  0  0 
  5  7  1  0  0  0  0 
  6  8  1  0  0  0  0 
M  END
> <Name>
2-Heptyn-1-ol

> <Source>
NIST2DMolFile

> <Tox>
2.811

> <CAS>
1002-36-4

$$$$

  CDK

  6  6  0  0  0  0  0  0  0  0999 V2000
    2.3322    0.0000    0.0000 Br  0  0  0  0  0  0  0  0  0  0  0  0
    1.5717    0.4563    0.0000 C   0  0  0  0  0  0  0  0  0  0  0  0
    0.7605    0.0000    0.0000 S   0  0  0  0  0  0  0  0  0  0  0  0
    1.5717    1.3182    0.0000 C   0  0  0  0  0  0  0  0  0  0  0  0
    0.0000    0.4563    0.0000 C   0  0  0  0  0  0  0  0  0  0  0  0
    0.0000    1.3182    0.0000 C   0  0  0  0  0  0  0  0  0  0  0  0
  1  2  1  0  0  0  0 
  2  3  1  0  0  0  0 
  4  2  2  0  0  0  0 
  3  5  1  0  0  0  0 
  6  4  1  0  0  0  0 
  5  6  2  0  0  0  0 
M  END
> <Name>
2-bromothiophene

> <Source>
NIST2DMolFile

> <Tox>
3.090

> <CAS>
1003-09-4

$$$$

  CDK

 12 13  0  0  0  0  0  0  0  0999 V2000
    0.0262    0.0000    2.9564 O   0  0  0  0  0  0  0  0  0  0  0  0
    0.8444    0.7898    3.3618 C   0  0  0  0  0  0  0  0  0  0  0  0
    2.0849    0.2494    3.5897 O   0  0  0  0  0  0  0  0  0  0  0  0
    0.7820    2.2646    3.6820 C   0  0  0  0  0  0  0  0  0  0  0  0
    2.9969    1.2751    4.0180 C   0  0  0  0  0  0  0  0  0  0  0  0
    2.1855    2.5855    4.1846 C   0  0  0  0  0  0  0  0  0  0  0  0
    4.1470    1.4515    3.0606 C   0  0  0  0  0  0  0  0  0  0  0  0
    5.2048    2.2710    3.4676 C   0  0  0  0  0  0  0  0  0  0  0  0
    4.1986    0.8345    1.8126 C   0  0  0  0  0  0  0  0  0  0  0  0
    6.2946    2.4751    2.6315 C   0  0  0  0  0  0  0  0  0  0  0  0
    5.2943    1.0403    0.9787 C   0  0  0  0  0  0  0  0  0  0  0  0
    6.3404    1.8597    1.3840 C   0  0  0  0  0  0  0  0  0  0  0  0
  1  2  2  0  0  0  0 
  3  2  1  0  0  0  0 
  2  4  1  0  0  0  0 
  5  3  1  0  0  0  0 
  4  6  1  0  0  0  0 
  6  5  1  0  0  0  0 
  5  7  1  0  0  0  0 
  7  8  2  0  0  0  0 
  9  7  1  0  0  0  0 
  8 10  1  0  0  0  0 
 11  9  2  0  0  0  0 
 10 12  2  0  0  0  0 
 12 11  1  0  0  0  0 
M  END
> <Name>
2(3H)-Furanone, dihydro-5-phenyl- (8CI)(9CI)

> <Source>
NIST3DMolFile

> <Tox>
2.950

> <CAS>
1008-76-0

$$$$

  CDK

 12 13  0  0  0  0  0  0  0  0999 V2000
    3.0258    0.8573    0.0000 C   0  0  0  0  0  0  0  0  0  0  0  0
    3.5301    1.7146    0.0000 C   0  0  0  0  0  0  0  0  0  0  0  0
    3.5301    0.0000    0.0000 C   0  0  0  0  0  0  0  0  0  0  0  0
    2.0172    0.8573    0.0000 C   0  0  0  0  0  0  0  0  0  0  0  0
    4.5387    1.7146    0.0000 C   0  0  0  0  0  0  0  0  0  0  0  0
    4.5387    0.0000    0.0000 C   0  0  0  0  0  0  0  0  0  0  0  0
    1.5129    0.0000    0.0000 C   0  0  0  0  0  0  0  0  0  0  0  0
    1.5129    1.7146    0.0000 C   0  0  0  0  0  0  0  0  0  0  0  0
    5.0430    0.8573    0.0000 C   0  0  0  0  0  0  0  0  0  0  0  0
    0.5043    0.0000    0.0000 C   0  0  0  0  0  0  0  0  0  0  0  0
    0.5043    1.7146    0.0000 N   0  0  0  0  0  0  0  0  0  0  0  0
    0.0000    0.8573    0.0000 C   0  0  0  0  0  0  0  0  0  0  0  0
  2  1  2  0  0  0  0 
  1  3  1  0  0  0  0 
  1  4  1  0  0  0  0 
  5  2  1  0  0  0  0 
  3  6  2  0  0  0  0 
  7  4  2  0  0  0  0 
  4  8  1  0  0  0  0 
  9  5  2  0  0  0  0 
  6  9  1  0  0  0  0 
 10  7  1  0  0  0  0 
  8 11  2  0  0  0  0 
 12 10  2  0  0  0  0 
 11 12  1  0  0  0  0 
M  END
> <Name>
Pyridine, 3-phenyl-

> <Source>
NIST2DMolFile

> <Tox>
3.470

> <CAS>
1008-88-4

$$$$

  CDK

 16 16  0  0  0  0  0  0  0  0999 V2000
   -2.4098    1.7380    0.0027 O   0  0  0  0  0  0  0  0  0  0  0  0
   -1.1708    1.1683    0.0001 C   0  0  0  0  0  0  0  0  0  0  0  0
   -1.0364   -0.2203   -0.0001 C   0  0  0  0  0  0  0  0  0  0  0  0
   -0.0354    1.9787   -0.0007 C   0  0  0  0  0  0  0  0  0  0  0  0
   -2.2398   -1.1046    0.0015 C   0  0  0  0  0  0  0  0  0  0  0  0
    0.2331   -0.7982   -0.0008 C   0  0  0  0  0  0  0  0  0  0  0  0
   -0.1526    3.3361   -0.0005 O   0  0  0  0  0  0  0  0  0  0  0  0
    1.2341    1.4007   -0.0017 C   0  0  0  0  0  0  0  0  0  0  0  0
   -1.8330   -2.6100    0.0020 C   0  0  0  0  0  0  0  0  0  0  0  0
   -3.1245   -0.8552   -1.2584 C   0  0  0  0  0  0  0  0  0  0  0  0
   -3.1974   -0.9299    1.2257 C   0  0  0  0  0  0  0  0  0  0  0  0
    1.3260    0.0314   -0.0018 C   0  0  0  0  0  0  0  0  0  0  0  0
    2.7252   -0.6064   -0.0013 C   0  0  0  0  0  0  0  0  0  0  0  0
    2.5947   -2.1448    0.0000 C   0  0  0  0  0  0  0  0  0  0  0  0
    3.4989   -0.1612    1.2587 C   0  0  0  0  0  0  0  0  0  0  0  0
    3.5875   -0.2227   -1.2252 C   0  0  0  0  0  0  0  0  0  0  0  0
  1  2  1  0  0  0  0 
  3  2  2  0  0  0  0 
  2  4  1  0  0  0  0 
  5  3  1  0  0  0  0 
  3  6  1  0  0  0  0 
  7  4  1  0  0  0  0 
  8  4  2  0  0  0  0 
  5  9  1  0  0  0  0 
  5 10  1  0  0  0  0 
  5 11  1  0  0  0  0 
 12  6  2  0  0  0  0 
 12  8  1  0  0  0  0 
 13 12  1  0  0  0  0 
 13 14  1  0  0  0  0 
 13 15  1  0  0  0  0 
 13 16  1  0  0  0  0 
M  END
> <Name>
3,5-ditert-butylbenzene-1,2-diol

> <Source>
Chemidplus3DMolFile

> <Tox>
5.110

> <CAS>
1020-31-1

$$$$

  CDK

  8  8  0  0  0  0  0  0  0  0999 V2000
    1.9950   -2.3036    0.0000 N   0  0  0  0  0  0  0  0  0  0  0  0
    1.3300   -1.1545    0.0000 C   0  0  0  0  0  0  0  0  0  0  0  0
    3.3250   -2.3036    0.0000 C   0  0  0  0  0  0  0  0  0  0  0  0
    0.0000   -1.1545    0.0000 N   0  0  0  0  0  0  0  0  0  0  0  0
    1.9950   -0.0000    0.0000 C   0  0  0  0  0  0  0  0  0  0  0  0
    3.9900   -1.1545    0.0000 C   0  0  0  0  0  0  0  0  0  0  0  0
    3.3250   -0.0000    0.0000 C   0  0  0  0  0  0  0  0  0  0  0  0
    5.3201   -1.1545    0.0000 Br  0  0  0  0  0  0  0  0  0  0  0  0
  1  2  2  0  0  0  0 
  1  3  1  0  0  0  0 
  2  4  1  0  0  0  0 
  2  5  1  0  0  0  0 
  6  3  2  0  0  0  0 
  5  7  2  0  0  0  0 
  7  6  1  0  0  0  0 
  6  8  1  0  0  0  0 
M  END
> <Name>
5-Bromo-2-pyridylamine

> <Source>
DSSTox2DMolFile

> <Tox>
3.490

> <CAS>
1072-97-5

$$$$

  CDK

  6  5  0  0  0  0  0  0  0  0999 V2000
   -1.6700   -0.1600    0.0000 C   0  0  0  0  0  0  0  0  0  0  0  0
   -1.0100    0.2100    0.0000 C   0  0  0  0  0  0  0  0  0  0  0  0
   -0.3400   -0.1800    0.0000 C   0  0  0  0  0  0  0  0  0  0  0  0
    0.3400    0.1900    0.0000 C   0  0  0  0  0  0  0  0  0  0  0  0
    1.0000   -0.2100    0.0000 C   0  0  0  0  0  0  0  0  0  0  0  0
    1.6700    0.1600    0.0000 Br  0  0  0  0  0  0  0  0  0  0  0  0
  1  2  2  0  0  0  0 
  2  3  1  0  0  0  0 
  3  4  1  0  0  0  0 
  4  5  1  0  0  0  0 
  5  6  1  0  0  0  0 
M  END
> <Name>
5-bromopent-1-ene

> <Source>
IndexNet2DMolFile

> <Tox>
3.013

> <CAS>
1119-51-3

$$$$

  CDK

  7  7  0  0  0  0  0  0  0  0999 V2000
    4.0431    3.2332    2.5679 C   0  0  0  0  0  0  0  0  0  0  0  0
    2.5585    2.9671    2.4337 C   0  0  0  0  0  0  0  0  0  0  0  0
    2.1694    2.4788    1.0436 C   0  0  0  0  0  0  0  0  0  0  0  0
    2.0673    1.8797    3.3950 C   0  0  0  0  0  0  0  0  0  0  0  0
    2.4815    3.0113    0.0000 O   0  0  0  0  0  0  0  0  0  0  0  0
    1.3157    1.2326    1.1570 C   0  0  0  0  0  0  0  0  0  0  0  0
    1.0193    1.0623    2.6420 C   0  0  0  0  0  0  0  0  0  0  0  0
  1  2  1  0  0  0  0 
  3  2  1  0  0  0  0 
  2  4  1  0  0  0  0 
  3  5  2  0  0  0  0 
  6  3  1  0  0  0  0 
  4  7  1  0  0  0  0 
  6  7  1  0  0  0  0 
M  END
> <Name>
2-methylcyclopentan-1-one

> <Source>
NIST3DMolFile

> <Tox>
1.800

> <CAS>
1120-72-5

$$$$

  CDK

 13 14  0  0  0  0  0  0  0  0999 V2000
    8.0665    2.0080    2.6429 C   0  0  0  0  0  0  0  0  0  0  0  0
    9.4040    1.8997    2.9125 O   0  0  0  0  0  0  0  0  0  0  0  0
    7.2101    1.2129    3.4164 C   0  0  0  0  0  0  0  0  0  0  0  0
    7.5551    2.8564    1.6529 C   0  0  0  0  0  0  0  0  0  0  0  0
    5.8425    1.2793    3.1929 C   0  0  0  0  0  0  0  0  0  0  0  0
    6.1822    2.9083    1.4479 C   0  0  0  0  0  0  0  0  0  0  0  0
    5.3154    2.1299    2.2166 C   0  0  0  0  0  0  0  0  0  0  0  0
    3.8352    2.2096    1.9699 C   0  0  0  0  0  0  0  0  0  0  0  0
    3.0927    2.7165    3.2121 C   0  0  0  0  0  0  0  0  0  0  0  0
    3.2814    0.8585    1.5192 C   0  0  0  0  0  0  0  0  0  0  0  0
    1.6313    2.2832    3.2296 C   0  0  0  0  0  0  0  0  0  0  0  0
    1.8235    0.9732    1.0901 C   0  0  0  0  0  0  0  0  0  0  0  0
    1.0801    2.0781    1.8303 C   0  0  0  0  0  0  0  0  0  0  0  0
  1  2  1  0  0  0  0 
  1  3  2  0  0  0  0 
  4  1  1  0  0  0  0 
  3  5  1  0  0  0  0 
  6  4  2  0  0  0  0 
  5  7  2  0  0  0  0 
  7  6  1  0  0  0  0 
  7  8  1  0  0  0  0 
  9  8  1  0  0  0  0 
  8 10  1  0  0  0  0 
 11  9  1  0  0  0  0 
 10 12  1  0  0  0  0 
 13 11  1  0  0  0  0 
 12 13  1  0  0  0  0 
M  END
> <Name>
Phenol, p-cyclohexyl- (8CI)

> <Source>
NIST3DMolFile

> <Tox>
4.560

> <CAS>
1131-60-8

$$$$

  CDK

 15 16  0  0  0  0  0  0  0  0999 V2000
    4.5976   -1.9968    0.0000 C   0  0  0  0  0  0  0  0  0  0  0  0
    3.4542   -1.3285    0.0000 C   0  0  0  0  0  0  0  0  0  0  0  0
    4.5976   -3.3254    0.0000 C   0  0  0  0  0  0  0  0  0  0  0  0
    5.7490   -1.3285    0.0000 C   0  0  0  0  0  0  0  0  0  0  0  0
    3.4542   -0.0000    0.0000 O   0  0  0  0  0  0  0  0  0  0  0  0
    2.3028   -1.9968    0.0000 C   0  0  0  0  0  0  0  0  0  0  0  0
    5.7490   -3.9937    0.0000 C   0  0  0  0  0  0  0  0  0  0  0  0
    6.9004   -1.9968    0.0000 C   0  0  0  0  0  0  0  0  0  0  0  0
    2.3028   -3.3254    0.0000 C   0  0  0  0  0  0  0  0  0  0  0  0
    1.1514   -1.3285    0.0000 C   0  0  0  0  0  0  0  0  0  0  0  0
    6.9004   -3.3254    0.0000 C   0  0  0  0  0  0  0  0  0  0  0  0
    1.1514   -3.9937    0.0000 C   0  0  0  0  0  0  0  0  0  0  0  0
    0.0000   -1.9968    0.0000 C   0  0  0  0  0  0  0  0  0  0  0  0
    8.0518   -3.9937    0.0000 O   0  0  0  0  0  0  0  0  0  0  0  0
    0.0000   -3.3254    0.0000 C   0  0  0  0  0  0  0  0  0  0  0  0
  1  2  1  0  0  0  0 
  1  3  2  0  0  0  0 
  1  4  1  0  0  0  0 
  2  5  2  0  0  0  0 
  2  6  1  0  0  0  0 
  7  3  1  0  0  0  0 
  4  8  2  0  0  0  0 
  6  9  2  0  0  0  0 
  6 10  1  0  0  0  0 
 11  7  2  0  0  0  0 
  8 11  1  0  0  0  0 
  9 12  1  0  0  0  0 
 13 10  2  0  0  0  0 
 11 14  1  0  0  0  0 
 12 15  2  0  0  0  0 
 15 13  1  0  0  0  0 
M  END
> <Name>
Benzophenone, 4-hydroxy- (6CI,7CI,8CI)

> <Source>
DSSTox2DMolFile

> <Tox>
4.020

> <CAS>
1137-42-4

$$$$

  CDK

  8  7  0  0  0  0  0  0  0  0999 V2000
    3.4834    0.4976    0.0000 C   0  0  0  0  0  0  0  0  0  0  0  0
    2.5877    0.0000    0.0000 C   0  0  0  0  0  0  0  0  0  0  0  0
    4.3294    0.0000    0.0000 C   0  0  0  0  0  0  0  0  0  0  0  0
    1.7417    0.4976    0.0000 C   0  0  0  0  0  0  0  0  0  0  0  0
    5.1754    0.4976    0.0000 C   0  0  0  0  0  0  0  0  0  0  0  0
    0.8957    0.0000    0.0000 C   0  0  0  0  0  0  0  0  0  0  0  0
    6.0711    0.0000    0.0000 S   0  0  0  0  0  0  0  0  0  0  0  0
    0.0000    0.4976    0.0000 S   0  0  0  0  0  0  0  0  0  0  0  0
  1  2  1  0  0  0  0 
  1  3  1  0  0  0  0 
  2  4  1  0  0  0  0 
  3  5  1  0  0  0  0 
  4  6  1  0  0  0  0 
  5  7  1  0  0  0  0 
  6  8  1  0  0  0  0 
M  END
> <Name>
Hexane-1,6-dithiol

> <Source>
NIST2DMolFile

> <Tox>
3.626

> <CAS>
1191-43-1

$$$$

  CDK

 10  9  0  0  0  0  0  0  0  0999 V2000
    0.0000    0.0000    0.0000 S   0  0  0  0  0  0  0  0  0  0  0  0
    0.8535    0.5021    0.0000 C   0  0  0  0  0  0  0  0  0  0  0  0
    1.7070    0.0000    0.0000 C   0  0  0  0  0  0  0  0  0  0  0  0
    2.6108    0.5021    0.0000 C   0  0  0  0  0  0  0  0  0  0  0  0
    3.4141    0.0000    0.0000 C   0  0  0  0  0  0  0  0  0  0  0  0
    4.2676    0.5021    0.0000 C   0  0  0  0  0  0  0  0  0  0  0  0
    5.1211    0.0000    0.0000 C   0  0  0  0  0  0  0  0  0  0  0  0
    6.0249    0.5021    0.0000 C   0  0  0  0  0  0  0  0  0  0  0  0
    6.8784    0.0000    0.0000 C   0  0  0  0  0  0  0  0  0  0  0  0
    7.7821    0.5021    0.0000 S   0  0  0  0  0  0  0  0  0  0  0  0
  1  2  1  0  0  0  0 
  2  3  1  0  0  0  0 
  3  4  1  0  0  0  0 
  4  5  1  0  0  0  0 
  5  6  1  0  0  0  0 
  6  7  1  0  0  0  0 
  8  7  1  0  0  0  0 
  9  8  1  0  0  0  0 
 10  9  1  0  0  0  0 
M  END
> <Name>
Octane-1,8-dithiol

> <Source>
NIST2DMolFile

> <Tox>
4.191

> <CAS>
1191-62-4

$$$$

  CDK

  9  9  0  0  0  0  0  0  0  0999 V2000
    2.4790    1.7201    0.0000 C   0  0  0  0  0  0  0  0  0  0  0  0
    1.9731    0.8601    0.0000 C   0  0  0  0  0  0  0  0  0  0  0  0
    3.4909    1.7201    0.0000 C   0  0  0  0  0  0  0  0  0  0  0  0
    2.4790    0.0000    0.0000 C   0  0  0  0  0  0  0  0  0  0  0  0
    1.0118    0.8601    0.0000 C   0  0  0  0  0  0  0  0  0  0  0  0
    3.9968    0.8601    0.0000 C   0  0  0  0  0  0  0  0  0  0  0  0
    3.4909    0.0000    0.0000 C   0  0  0  0  0  0  0  0  0  0  0  0
    0.0000    0.8601    0.0000 N   0  0  0  0  0  0  0  0  0  0  0  0
    5.0086    0.8601    0.0000 F   0  0  0  0  0  0  0  0  0  0  0  0
  1  2  2  0  0  0  0 
  3  1  1  0  0  0  0 
  2  4  1  0  0  0  0 
  2  5  1  0  0  0  0 
  6  3  2  0  0  0  0 
  4  7  2  0  0  0  0 
  5  8  3  0  0  0  0 
  6  9  1  0  0  0  0 
  7  6  1  0  0  0  0 
M  END
> <Name>
4-fluorobenzonitrile

> <Source>
NIST2DMolFile

> <Tox>
2.740

> <CAS>
1194-02-1

$$$$

  CDK

 12 12  0  0  0  0  0  0  0  0999 V2000
    0.0000   -2.3036    0.0000 O   0  0  0  0  0  0  0  0  0  0  0  0
    1.3300   -2.3036    0.0000 C   0  0  0  0  0  0  0  0  0  0  0  0
    1.9950   -1.1491    0.0000 C   0  0  0  0  0  0  0  0  0  0  0  0
    1.9950   -3.4580    0.0000 C   0  0  0  0  0  0  0  0  0  0  0  0
    1.3300   -0.0000    0.0000 O   0  0  0  0  0  0  0  0  0  0  0  0
    3.3250   -1.1491    0.0000 C   0  0  0  0  0  0  0  0  0  0  0  0
    3.3250   -3.4580    0.0000 C   0  0  0  0  0  0  0  0  0  0  0  0
    1.3300   -4.6072    0.0000 Cl  0  0  0  0  0  0  0  0  0  0  0  0
    3.9901   -0.0000    0.0000 Cl  0  0  0  0  0  0  0  0  0  0  0  0
    3.9901   -2.3036    0.0000 C   0  0  0  0  0  0  0  0  0  0  0  0
    3.9901   -4.6072    0.0000 Cl  0  0  0  0  0  0  0  0  0  0  0  0
    5.3201   -2.3036    0.0000 Cl  0  0  0  0  0  0  0  0  0  0  0  0
  1  2  1  0  0  0  0 
  2  3  2  0  0  0  0 
  2  4  1  0  0  0  0 
  3  5  1  0  0  0  0 
  3  6  1  0  0  0  0 
  7  4  2  0  0  0  0 
  4  8  1  0  0  0  0 
  6  9  1  0  0  0  0 
  6 10  2  0  0  0  0 
 10  7  1  0  0  0  0 
  7 11  1  0  0  0  0 
 10 12  1  0  0  0  0 
M  END
> <Name>
3,4,5,6-Tetrachloro-1,2-benzenediol  (9CI)

> <Source>
DSSTox2DMolFile

> <Tox>
4.700

> <CAS>
1198-55-6

$$$$

  CDK

 13 14  0  0  0  0  0  0  0  0999 V2000
   -3.2663   -1.4667    0.9703 O   0  0  0  0  0  0  0  0  0  0  0  0
   -3.7568   -0.2355    0.4552 C   0  0  0  0  0  0  0  0  0  0  0  0
   -2.9351    0.1709   -0.7717 C   0  0  0  0  0  0  0  0  0  0  0  0
   -1.4925    0.3875   -0.4600 C   0  0  0  0  0  0  0  0  0  0  0  0
   -0.5931   -0.6754   -0.5490 C   0  0  0  0  0  0  0  0  0  0  0  0
   -1.0446    1.6493   -0.0803 C   0  0  0  0  0  0  0  0  0  0  0  0
    0.7681   -0.4884   -0.2585 C   0  0  0  0  0  0  0  0  0  0  0  0
    0.3042    1.8531    0.2120 C   0  0  0  0  0  0  0  0  0  0  0  0
    1.2235    0.7947    0.1277 C   0  0  0  0  0  0  0  0  0  0  0  0
    1.6873   -1.5469   -0.3427 C   0  0  0  0  0  0  0  0  0  0  0  0
    2.5848    0.9816    0.4182 C   0  0  0  0  0  0  0  0  0  0  0  0
    3.0363   -1.3430   -0.0504 C   0  0  0  0  0  0  0  0  0  0  0  0
    3.4842   -0.0813    0.3292 C   0  0  0  0  0  0  0  0  0  0  0  0
  1  2  1  0  0  0  0 
  3  2  1  0  0  0  0 
  4  3  1  0  0  0  0 
  4  5  2  0  0  0  0 
  4  6  1  0  0  0  0 
  7  5  1  0  0  0  0 
  6  8  2  0  0  0  0 
  7  9  1  0  0  0  0 
  7 10  2  0  0  0  0 
  9  8  1  0  0  0  0 
  9 11  2  0  0  0  0 
 10 12  1  0  0  0  0 
 11 13  1  0  0  0  0 
 12 13  2  0  0  0  0 
M  END
> <Name>
2-naphthalen-2-ylethanol

> <Source>
Chemidplus3DMolFile

> <Tox>
3.490

> <CAS>
1485-07-0

$$$$

  CDK

 12 13  0  0  0  0  0  0  0  0999 V2000
   -4.0978    0.5275   -0.0702 O   0  0  0  0  0  0  0  0  0  0  0  0
   -2.7705    0.2292   -0.0325 C   0  0  0  0  0  0  0  0  0  0  0  0
   -2.3575   -1.0968    0.0969 C   0  0  0  0  0  0  0  0  0  0  0  0
   -1.8231    1.2490   -0.1237 C   0  0  0  0  0  0  0  0  0  0  0  0
   -0.9972   -1.4032    0.1353 C   0  0  0  0  0  0  0  0  0  0  0  0
   -0.4628    0.9425   -0.0854 C   0  0  0  0  0  0  0  0  0  0  0  0
   -0.0504   -0.3834    0.0441 C   0  0  0  0  0  0  0  0  0  0  0  0
    1.4245   -0.7156    0.0854 C   0  0  0  0  0  0  0  0  0  0  0  0
    2.1625   -0.2819   -1.1937 C   0  0  0  0  0  0  0  0  0  0  0  0
    2.1949   -0.0640    1.2527 C   0  0  0  0  0  0  0  0  0  0  0  0
    3.5383    0.1570   -0.7159 C   0  0  0  0  0  0  0  0  0  0  0  0
    3.2390    0.8397    0.6070 C   0  0  0  0  0  0  0  0  0  0  0  0
  1  2  1  0  0  0  0 
  3  2  2  0  0  0  0 
  4  2  1  0  0  0  0 
  5  3  1  0  0  0  0 
  6  4  2  0  0  0  0 
  7  5  2  0  0  0  0 
  7  6  1  0  0  0  0 
  8  7  1  0  0  0  0 
  8  9  1  0  0  0  0 
  8 10  1  0  0  0  0 
  9 11  1  0  0  0  0 
 10 12  1  0  0  0  0 
 11 12  1  0  0  0  0 
M  END
> <Name>
4-cyclopentylphenol

> <Source>
Chemidplus3DMolFile

> <Tox>
4.290

> <CAS>
1518-83-8

$$$$

  CDK

  9  8  0  0  0  0  0  0  0  0999 V2000
    0.7145    0.2062    0.0000 C   0  0  0  0  0  0  0  0  0  0  0  0
    0.0000   -0.2062    0.0000 C   0  0  0  0  0  0  0  0  0  0  0  0
    0.7145    1.0313    0.0000 O   0  0  0  0  0  0  0  0  0  0  0  0
    1.4289   -0.2062    0.0000 O   0  0  0  0  0  0  0  0  0  0  0  0
   -0.7145    0.2062    0.0000 C   0  0  0  0  0  0  0  0  0  0  0  0
    0.0000   -1.0313    0.0000 C   0  0  0  0  0  0  0  0  0  0  0  0
    2.1434    0.2062    0.0000 C   0  0  0  0  0  0  0  0  0  0  0  0
   -1.4289   -0.2062    0.0000 C   0  0  0  0  0  0  0  0  0  0  0  0
   -2.1434    0.2062    0.0000 C   0  0  0  0  0  0  0  0  0  0  0  0
  1  2  1  0  0  0  0 
  1  3  2  0  0  0  0 
  1  4  1  0  0  0  0 
  2  5  2  0  0  0  0 
  2  6  1  0  0  0  0 
  4  7  1  0  0  0  0 
  5  8  1  0  0  0  0 
  8  9  1  0  0  0  0 
M  END
> <Name>
METHYL TRANS-2-METHYL-2-PENTENOATE

> <Source>
Name2DMolFile

> <Tox>
2.624

> <CAS>
1567-14-2

$$$$

  CDK

  6  5  0  0  0  0  0  0  0  0999 V2000
    3.6985   -1.0475   -0.2202 O   0  0  0  0  0  0  0  0  0  0  0  0
    2.5418   -0.6476   -0.1639 C   0  0  0  0  0  0  0  0  0  0  0  0
    1.4196   -1.5489    0.1599 C   0  0  0  0  0  0  0  0  0  0  0  0
    0.1773   -1.0531    0.2056 C   0  0  0  0  0  0  0  0  0  0  0  0
   -1.0313   -1.8854    0.5198 C   0  0  0  0  0  0  0  0  0  0  0  0
   -1.6420   -2.4761   -0.7417 C   0  0  0  0  0  0  0  0  0  0  0  0
  1  2  2  0  0  0  0 
  3  2  1  0  0  0  0 
  4  3  2  0  0  0  0 
  5  4  1  0  0  0  0 
  5  6  1  0  0  0  0 
M  END
> <Name>
(E)-Pent-2-en-1-al

> <Source>
Chemidplus3DMolFile

> <Tox>
3.660

> <CAS>
1576-87-0

$$$$

  CDK

  9  9  0  0  0  0  0  0  0  0999 V2000
    0.0000    0.0000    0.0000 O   0  0  0  0  0  0  0  0  0  0  0  0
    0.4998    0.8496    0.0000 C   0  0  0  0  0  0  0  0  0  0  0  0
    1.4994    0.8496    0.0000 C   0  0  0  0  0  0  0  0  0  0  0  0
    1.9992    1.7493    0.0000 C   0  0  0  0  0  0  0  0  0  0  0  0
    1.9992    0.0000    0.0000 C   0  0  0  0  0  0  0  0  0  0  0  0
    2.9988    1.7493    0.0000 C   0  0  0  0  0  0  0  0  0  0  0  0
    2.9988    0.0000    0.0000 C   0  0  0  0  0  0  0  0  0  0  0  0
    3.4985    2.5989    0.0000 N   0  0  0  0  0  0  0  0  0  0  0  0
    3.4985    0.8496    0.0000 C   0  0  0  0  0  0  0  0  0  0  0  0
  1  2  1  0  0  0  0 
  2  3  1  0  0  0  0 
  4  3  2  0  0  0  0 
  3  5  1  0  0  0  0 
  6  4  1  0  0  0  0 
  5  7  2  0  0  0  0 
  6  8  1  0  0  0  0 
  9  6  2  0  0  0  0 
  7  9  1  0  0  0  0 
M  END
> <Name>
Benzenemethanol, 3-amino- (9CI)

> <Source>
NIST2DMolFile

> <Tox>
1.870

> <CAS>
1877-77-6

$$$$

  CDK

  7  6  0  0  0  0  0  0  0  0999 V2000
    0.0000    1.8391    0.0000 C   0  0  0  0  0  0  0  0  0  0  0  0
    0.5109    0.9707    0.0000 C   0  0  0  0  0  0  0  0  0  0  0  0
    1.5326    0.9707    0.0000 S   0  0  0  0  0  0  0  0  0  0  0  0
    2.5544    0.9707    0.0000 C   0  0  0  0  0  0  0  0  0  0  0  0
    1.5326    0.0000    0.0000 O   0  0  0  0  0  0  0  0  0  0  0  0
    1.5326    1.9413    0.0000 O   0  0  0  0  0  0  0  0  0  0  0  0
    3.0652    0.1022    0.0000 C   0  0  0  0  0  0  0  0  0  0  0  0
  1  2  2  0  0  0  0 
  2  3  1  0  0  0  0 
  3  4  1  0  0  0  0 
  3  5  2  0  0  0  0 
  3  6  2  0  0  0  0 
  4  7  1  0  0  0  0 
M  END
> <Name>
(Ethylsulphonyl)ethylene

> <Source>
NIST2DMolFile

> <Tox>
3.110

> <CAS>
1889-59-4

$$$$

  CDK

  8  8  0  0  0  0  0  0  0  0999 V2000
   -1.8217    0.2309    0.0000 O   0  0  0  0  0  0  0  0  0  0  0  0
   -1.1877   -0.2969    0.0000 C   0  0  0  0  0  0  0  0  0  0  0  0
   -0.4135   -0.0117    0.0000 C   0  0  0  0  0  0  0  0  0  0  0  0
    0.2722   -0.4703    0.0000 C   0  0  0  0  0  0  0  0  0  0  0  0
   -0.1893    0.7822    0.0000 O   0  0  0  0  0  0  0  0  0  0  0  0
    0.9203    0.0401    0.0000 C   0  0  0  0  0  0  0  0  0  0  0  0
    0.6351    0.8143    0.0000 C   0  0  0  0  0  0  0  0  0  0  0  0
    1.0938    1.5000    0.0000 Br  0  0  0  0  0  0  0  0  0  0  0  0
  1  2  2  0  0  0  0 
  2  3  1  0  0  0  0 
  3  4  2  0  0  0  0 
  3  5  1  0  0  0  0 
  4  6  1  0  0  0  0 
  7  5  1  0  0  0  0 
  6  7  2  0  0  0  0 
  7  8  1  0  0  0  0 
M  END
> <Name>
2-Furaldehyde,5-bromo- (6CI,7CI,8CI)

> <Source>
Smiles

> <Tox>
3.130

> <CAS>
1899-24-7

$$$$

  CDK

 12 12  0  0  0  0  0  0  0  0999 V2000
    4.0432    0.8765    1.6888 C   0  0  0  0  0  0  0  0  0  0  0  0
    4.6017    2.1798    1.6275 O   0  0  0  0  0  0  0  0  0  0  0  0
    2.5393    1.0771    1.8547 C   0  0  0  0  0  0  0  0  0  0  0  0
    5.9802    2.2622    1.5994 C   0  0  0  0  0  0  0  0  0  0  0  0
    1.8215    0.4668    0.8641 O   0  0  0  0  0  0  0  0  0  0  0  0
    1.9589    1.6615    2.7435 O   0  0  0  0  0  0  0  0  0  0  0  0
    6.4582    3.5834    1.5970 C   0  0  0  0  0  0  0  0  0  0  0  0
    6.8672    1.1834    1.5605 C   0  0  0  0  0  0  0  0  0  0  0  0
    0.4130    0.5538    0.8966 C   0  0  0  0  0  0  0  0  0  0  0  0
    7.8249    3.8117    1.5530 C   0  0  0  0  0  0  0  0  0  0  0  0
    8.2356    1.4356    1.5293 C   0  0  0  0  0  0  0  0  0  0  0  0
    8.7145    2.7395    1.5207 C   0  0  0  0  0  0  0  0  0  0  0  0
  1  2  1  0  0  0  0 
  1  3  1  0  0  0  0 
  2  4  1  0  0  0  0 
  3  5  1  0  0  0  0 
  3  6  2  0  0  0  0 
  4  7  2  0  0  0  0 
  8  4  1  0  0  0  0 
  5  9  1  0  0  0  0 
  7 10  1  0  0  0  0 
 11  8  2  0  0  0  0 
 10 12  2  0  0  0  0 
 12 11  1  0  0  0  0 
M  END
> <Name>
Acetic acid, phenoxy-, methyl ester

> <Source>
NIST3DMolFile

> <Tox>
2.790

> <CAS>
2065-23-8

$$$$

  CDK

  6  5  0  0  0  0  0  0  0  0999 V2000
    3.4551   -0.0000    0.0000 O   0  0  0  0  0  0  0  0  0  0  0  0
    3.4551   -1.3314    0.0000 C   0  0  0  0  0  0  0  0  0  0  0  0
    4.6068   -1.9947    0.0000 C   0  0  0  0  0  0  0  0  0  0  0  0
    2.3034   -1.9947    0.0000 C   0  0  0  0  0  0  0  0  0  0  0  0
    1.1517   -1.3314    0.0000 C   0  0  0  0  0  0  0  0  0  0  0  0
    0.0000   -0.6634    0.0000 C   0  0  0  0  0  0  0  0  0  0  0  0
  1  2  1  0  0  0  0 
  2  3  1  0  0  0  0 
  2  4  1  0  0  0  0 
  4  5  1  0  0  0  0 
  5  6  3  0  0  0  0 
M  END
> <Name>
Pent-4-yn-2-ol

> <Source>
DSSTox2DMolFile

> <Tox>
1.368

> <CAS>
2117-11-5

$$$$

  CDK

 12 12  0  0  0  0  0  0  0  0999 V2000
    3.3264   -3.4580    0.0000 C   0  0  0  0  0  0  0  0  0  0  0  0
    3.9905   -4.6067    0.0000 O   0  0  0  0  0  0  0  0  0  0  0  0
    1.9922   -3.4580    0.0000 C   0  0  0  0  0  0  0  0  0  0  0  0
    3.9905   -2.3033    0.0000 C   0  0  0  0  0  0  0  0  0  0  0  0
    1.3282   -2.3033    0.0000 C   0  0  0  0  0  0  0  0  0  0  0  0
    3.3264   -1.1547    0.0000 C   0  0  0  0  0  0  0  0  0  0  0  0
    5.3186   -2.3033    0.0000 C   0  0  0  0  0  0  0  0  0  0  0  0
    0.0000   -2.3033    0.0000 O   0  0  0  0  0  0  0  0  0  0  0  0
    1.9922   -1.1547    0.0000 C   0  0  0  0  0  0  0  0  0  0  0  0
    5.9827   -3.4580    0.0000 O   0  0  0  0  0  0  0  0  0  0  0  0
    5.9827   -1.1547    0.0000 O   0  0  0  0  0  0  0  0  0  0  0  0
    5.3186   -0.0000    0.0000 C   0  0  0  0  0  0  0  0  0  0  0  0
  1  2  1  0  0  0  0 
  1  3  2  0  0  0  0 
  1  4  1  0  0  0  0 
  3  5  1  0  0  0  0 
  6  4  2  0  0  0  0 
  4  7  1  0  0  0  0 
  5  8  1  0  0  0  0 
  5  9  2  0  0  0  0 
  9  6  1  0  0  0  0 
  7 10  2  0  0  0  0 
  7 11  1  0  0  0  0 
 11 12  1  0  0  0  0 
M  END
> <Name>
Benzoic acid, 2,4-dihydroxy-, methyl ester

> <Source>
DSSTox2DMolFile

> <Tox>
3.610

> <CAS>
2150-47-2

$$$$

  CDK

 14 13  0  0  0  0  0  0  0  0999 V2000
    3.9009    2.3156    1.3124 C   0  0  0  0  0  0  0  0  0  0  0  0
    4.3898    3.6392    1.8936 C   0  0  0  0  0  0  0  0  0  0  0  0
    2.5928    2.0755    1.6160 O   0  0  0  0  0  0  0  0  0  0  0  0
    4.5271    1.4985    0.6710 O   0  0  0  0  0  0  0  0  0  0  0  0
    3.6799    4.7913    1.1872 C   0  0  0  0  0  0  0  0  0  0  0  0
    5.9065    3.7844    1.7525 C   0  0  0  0  0  0  0  0  0  0  0  0
    1.9840    0.8834    1.1129 C   0  0  0  0  0  0  0  0  0  0  0  0
    2.9983    5.5889    2.0559 O   0  0  0  0  0  0  0  0  0  0  0  0
    3.6747    5.0461    0.0000 O   0  0  0  0  0  0  0  0  0  0  0  0
    6.4444    4.9354    2.5886 C   0  0  0  0  0  0  0  0  0  0  0  0
    0.5414    0.9115    1.5796 C   0  0  0  0  0  0  0  0  0  0  0  0
    2.2838    6.7122    1.5333 C   0  0  0  0  0  0  0  0  0  0  0  0
    7.9428    5.0658    2.4333 C   0  0  0  0  0  0  0  0  0  0  0  0
    1.6487    7.4055    2.7231 C   0  0  0  0  0  0  0  0  0  0  0  0
  1  2  1  0  0  0  0 
  1  3  1  0  0  0  0 
  1  4  2  0  0  0  0 
  2  5  1  0  0  0  0 
  2  6  1  0  0  0  0 
  3  7  1  0  0  0  0 
  5  8  1  0  0  0  0 
  5  9  2  0  0  0  0 
  6 10  1  0  0  0  0 
  7 11  1  0  0  0  0 
  8 12  1  0  0  0  0 
 10 13  1  0  0  0  0 
 12 14  1  0  0  0  0 
M  END
> <Name>
Diethyl propylmalonate

> <Source>
NIST3DMolFile

> <Tox>
3.134

> <CAS>
2163-48-6

$$$$

  CDK

 11 11  0  0  0  0  0  0  0  0999 V2000
    3.9797    1.7128    0.0000 C   0  0  0  0  0  0  0  0  0  0  0  0
    2.9722    1.7128    0.0000 C   0  0  0  0  0  0  0  0  0  0  0  0
    4.4835    2.5692    0.0000 C   0  0  0  0  0  0  0  0  0  0  0  0
    2.5188    2.5692    0.0000 C   0  0  0  0  0  0  0  0  0  0  0  0
    2.5188    0.8564    0.0000 N   0  0  0  0  0  0  0  0  0  0  0  0
    3.9797    3.4760    0.0000 C   0  0  0  0  0  0  0  0  0  0  0  0
    2.9722    3.4760    0.0000 C   0  0  0  0  0  0  0  0  0  0  0  0
    1.5113    0.8564    0.0000 C   0  0  0  0  0  0  0  0  0  0  0  0
    1.0075    1.7128    0.0000 O   0  0  0  0  0  0  0  0  0  0  0  0
    1.0075    0.0000    0.0000 C   0  0  0  0  0  0  0  0  0  0  0  0
    0.0000    0.0000    0.0000 C   0  0  0  0  0  0  0  0  0  0  0  0
  2  1  2  0  0  0  0 
  1  3  1  0  0  0  0 
  4  2  1  0  0  0  0 
  2  5  1  0  0  0  0 
  3  6  2  0  0  0  0 
  7  4  2  0  0  0  0 
  5  8  1  0  0  0  0 
  6  7  1  0  0  0  0 
  8  9  2  0  0  0  0 
  8 10  1  0  0  0  0 
 10 11  2  0  0  0  0 
M  END
> <Name>
Acrylanilide(6CI,7CI,8CI)

> <Source>
NIST2DMolFile

> <Tox>
3.116

> <CAS>
2210-24-4

$$$$

  CDK

  8  7  0  0  0  0  0  0  0  0999 V2000
    2.3115   -1.3291    0.0000 C   0  0  0  0  0  0  0  0  0  0  0  0
    2.3115   -0.0000    0.0000 O   0  0  0  0  0  0  0  0  0  0  0  0
    1.1558   -1.9879    0.0000 C   0  0  0  0  0  0  0  0  0  0  0  0
    3.4673   -1.9879    0.0000 N   0  0  0  0  0  0  0  0  0  0  0  0
    0.0000   -1.3291    0.0000 C   0  0  0  0  0  0  0  0  0  0  0  0
    4.6231   -1.3291    0.0000 C   0  0  0  0  0  0  0  0  0  0  0  0
    5.7789   -1.9879    0.0000 C   0  0  0  0  0  0  0  0  0  0  0  0
    4.6231   -0.0000    0.0000 C   0  0  0  0  0  0  0  0  0  0  0  0
  1  2  2  0  0  0  0 
  1  3  1  0  0  0  0 
  1  4  1  0  0  0  0 
  3  5  2  0  0  0  0 
  4  6  1  0  0  0  0 
  6  7  1  0  0  0  0 
  6  8  1  0  0  0  0 
M  END
> <Name>
2-Propenamide, N-(1-methylethyl)-

> <Source>
DSSTox2DMolFile

> <Tox>
1.693

> <CAS>
2210-25-5

$$$$

  CDK

 12 12  0  0  0  0  0  0  0  0999 V2000
    5.7606   -2.6614    0.0000 N   0  0  0  0  0  0  0  0  0  0  0  0
    4.6085   -1.9989    0.0000 C   0  0  0  0  0  0  0  0  0  0  0  0
    3.4563   -2.6614    0.0000 C   0  0  0  0  0  0  0  0  0  0  0  0
    4.6085   -0.6682    0.0000 C   0  0  0  0  0  0  0  0  0  0  0  0
    2.3042   -1.9989    0.0000 C   0  0  0  0  0  0  0  0  0  0  0  0
    3.4563   -0.0000    0.0000 C   0  0  0  0  0  0  0  0  0  0  0  0
    1.1521   -2.6614    0.0000 C   0  0  0  0  0  0  0  0  0  0  0  0
    2.3042   -0.6682    0.0000 C   0  0  0  0  0  0  0  0  0  0  0  0
    0.4896   -1.5093    0.0000 F   0  0  0  0  0  0  0  0  0  0  0  0
    1.8146   -3.8135    0.0000 F   0  0  0  0  0  0  0  0  0  0  0  0
    0.0000   -3.3239    0.0000 F   0  0  0  0  0  0  0  0  0  0  0  0
    1.1521   -0.0000    0.0000 F   0  0  0  0  0  0  0  0  0  0  0  0
  1  2  1  0  0  0  0 
  2  3  2  0  0  0  0 
  2  4  1  0  0  0  0 
  3  5  1  0  0  0  0 
  6  4  2  0  0  0  0 
  5  7  1  0  0  0  0 
  5  8  2  0  0  0  0 
  8  6  1  0  0  0  0 
  7  9  1  0  0  0  0 
  7 10  1  0  0  0  0 
  7 11  1  0  0  0  0 
  8 12  1  0  0  0  0 
M  END
> <Name>
alpha,alpha,alpha,4-Tetrafluoro-m-toluidine

> <Source>
DSSTox2DMolFile

> <Tox>
3.770

> <CAS>
2357-47-3

$$$$

  CDK

 11 10  0  0  0  0  0  0  0  0999 V2000
    7.9743   -2.3046    0.0000 C   0  0  0  0  0  0  0  0  0  0  0  0
    7.3125   -1.1563    0.0000 C   0  0  0  0  0  0  0  0  0  0  0  0
    7.9743   -0.0000    0.0000 C   0  0  0  0  0  0  0  0  0  0  0  0
    5.9808   -1.1563    0.0000 C   0  0  0  0  0  0  0  0  0  0  0  0
    5.3189   -0.0000    0.0000 O   0  0  0  0  0  0  0  0  0  0  0  0
    5.3189   -2.3046    0.0000 O   0  0  0  0  0  0  0  0  0  0  0  0
    3.9872   -2.3046    0.0000 C   0  0  0  0  0  0  0  0  0  0  0  0
    3.3253   -1.1563    0.0000 C   0  0  0  0  0  0  0  0  0  0  0  0
    1.9936   -1.1563    0.0000 O   0  0  0  0  0  0  0  0  0  0  0  0
    1.3317   -0.0000    0.0000 C   0  0  0  0  0  0  0  0  0  0  0  0
    0.0000   -0.0000    0.0000 C   0  0  0  0  0  0  0  0  0  0  0  0
  1  2  2  0  0  0  0 
  2  3  1  0  0  0  0 
  2  4  1  0  0  0  0 
  4  5  2  0  0  0  0 
  4  6  1  0  0  0  0 
  6  7  1  0  0  0  0 
  7  8  1  0  0  0  0 
  8  9  1  0  0  0  0 
  9 10  1  0  0  0  0 
 10 11  1  0  0  0  0 
M  END
> <Name>
2-Propenoic acid, 2-methyl-, 2-ethoxyethyl ester

> <Source>
DSSTox2DMolFile

> <Tox>
2.220

> <CAS>
2370-63-0

$$$$

  CDK

  4  3  0  0  0  0  0  0  0  0999 V2000
    0.9902    0.0000    0.0000 C   0  0  0  0  0  0  0  0  0  0  0  0
    0.0000    0.0000    0.0000 C   0  0  0  0  0  0  0  0  0  0  0  0
    1.4854    0.8912    0.0000 C   0  0  0  0  0  0  0  0  0  0  0  0
    2.4756    0.8912    0.0000 N   0  0  0  0  0  0  0  0  0  0  0  0
  1  2  3  0  0  0  0 
  1  3  1  0  0  0  0 
  3  4  1  0  0  0  0 
M  END
> <Name>
2-Propyn-1-amine

> <Source>
NIST2DMolFile

> <Tox>
2.174

> <CAS>
2450-71-7

$$$$

  CDK

  9  8  0  0  0  0  0  0  0  0999 V2000
    1.7427    1.4938    0.0000 C   0  0  0  0  0  0  0  0  0  0  0  0
    2.5892    0.9959    0.0000 C   0  0  0  0  0  0  0  0  0  0  0  0
    0.8963    0.9959    0.0000 C   0  0  0  0  0  0  0  0  0  0  0  0
    3.4855    1.4938    0.0000 C   0  0  0  0  0  0  0  0  0  0  0  0
    0.8963    0.0000    0.0000 Cl  0  0  0  0  0  0  0  0  0  0  0  0
    0.0000    1.4938    0.0000 O   0  0  0  0  0  0  0  0  0  0  0  0
    4.3320    0.9959    0.0000 C   0  0  0  0  0  0  0  0  0  0  0  0
    5.1784    1.4938    0.0000 C   0  0  0  0  0  0  0  0  0  0  0  0
    6.0747    0.9959    0.0000 C   0  0  0  0  0  0  0  0  0  0  0  0
  1  2  1  0  0  0  0 
  1  3  1  0  0  0  0 
  2  4  1  0  0  0  0 
  3  5  1  0  0  0  0 
  3  6  2  0  0  0  0 
  4  7  1  0  0  0  0 
  7  8  1  0  0  0  0 
  8  9  1  0  0  0  0 
M  END
> <Name>
Heptanoyl chloride

> <Source>
NIST2DMolFile

> <Tox>
3.459

> <CAS>
2528-61-2

$$$$

  CDK

  9  8  0  0  0  0  0  0  0  0999 V2000
    3.8113    1.3494   -0.1769 O   0  0  0  0  0  0  0  0  0  0  0  0
    2.9844    0.6543    0.4010 C   0  0  0  0  0  0  0  0  0  0  0  0
    1.9922   -0.1519   -0.3349 C   0  0  0  0  0  0  0  0  0  0  0  0
    1.1139   -0.8918    0.3529 C   0  0  0  0  0  0  0  0  0  0  0  0
    0.0586   -1.7378   -0.3012 C   0  0  0  0  0  0  0  0  0  0  0  0
   -1.3650   -1.3830    0.1405 C   0  0  0  0  0  0  0  0  0  0  0  0
   -1.7844    0.0405   -0.2389 C   0  0  0  0  0  0  0  0  0  0  0  0
   -3.1994    0.3491    0.2519 C   0  0  0  0  0  0  0  0  0  0  0  0
   -3.6117    1.7711   -0.0944 C   0  0  0  0  0  0  0  0  0  0  0  0
  1  2  2  0  0  0  0 
  3  2  1  0  0  0  0 
  4  3  2  0  0  0  0 
  5  4  1  0  0  0  0 
  6  5  1  0  0  0  0 
  7  6  1  0  0  0  0 
  7  8  1  0  0  0  0 
  8  9  1  0  0  0  0 
M  END
> <Name>
(E)-oct-2-enal

> <Source>
Chemidplus3DMolFile

> <Tox>
4.200

> <CAS>
2548-87-0

$$$$

  CDK

 10 10  0  0  0  0  0  0  0  0999 V2000
    6.7883    0.9701    0.0026 C   0  0  0  0  0  0  0  0  0  0  0  0
    5.3989    1.0233    0.0026 C   0  0  0  0  0  0  0  0  0  0  0  0
    7.5324    2.1457    0.0026 C   0  0  0  0  0  0  0  0  0  0  0  0
    4.7525    2.2639    0.0061 C   0  0  0  0  0  0  0  0  0  0  0  0
    6.8892    3.3798    0.0071 C   0  0  0  0  0  0  0  0  0  0  0  0
    5.5011    3.4462    0.0091 C   0  0  0  0  0  0  0  0  0  0  0  0
    3.3377    2.3206    0.0074 C   0  0  0  0  0  0  0  0  0  0  0  0
    2.1438    2.3655    0.0085 C   0  0  0  0  0  0  0  0  0  0  0  0
    0.7076    2.4316    0.0098 C   0  0  0  0  0  0  0  0  0  0  0  0
    0.0000    1.4511    0.0167 O   0  0  0  0  0  0  0  0  0  0  0  0
  1  2  2  0  0  0  0 
  3  1  1  0  0  0  0 
  2  4  1  0  0  0  0 
  5  3  2  0  0  0  0 
  4  6  2  0  0  0  0 
  4  7  1  0  0  0  0 
  6  5  1  0  0  0  0 
  7  8  3  0  0  0  0 
  8  9  1  0  0  0  0 
  9 10  2  0  0  0  0 
M  END
> <Name>
Propiolaldehyde, phenyl- (8CI)

> <Source>
NIST3DMolFile

> <Tox>
5.020

> <CAS>
2579-22-8

$$$$

  CDK

  9  9  0  0  0  0  0  0  0  0999 V2000
    2.0343   -1.8843    0.0001 Cl  0  0  0  0  0  0  0  0  0  0  0  0
    0.7736   -0.7119    0.0000 C   0  0  0  0  0  0  0  0  0  0  0  0
   -0.5583   -1.1265    0.0002 C   0  0  0  0  0  0  0  0  0  0  0  0
    1.0805    0.6488   -0.0001 C   0  0  0  0  0  0  0  0  0  0  0  0
   -1.5831   -0.1801    0.0004 C   0  0  0  0  0  0  0  0  0  0  0  0
    2.3560    1.0623   -0.0003 F   0  0  0  0  0  0  0  0  0  0  0  0
    0.0558    1.5951    0.0001 C   0  0  0  0  0  0  0  0  0  0  0  0
   -2.8828   -0.5840   -0.0006 O   0  0  0  0  0  0  0  0  0  0  0  0
   -1.2760    1.1806    0.0003 C   0  0  0  0  0  0  0  0  0  0  0  0
  1  2  1  0  0  0  0 
  3  2  1  0  0  0  0 
  2  4  2  0  0  0  0 
  5  3  2  0  0  0  0 
  6  4  1  0  0  0  0 
  4  7  1  0  0  0  0 
  8  5  1  0  0  0  0 
  5  9  1  0  0  0  0 
  9  7  2  0  0  0  0 
M  END
> <Name>
3-chloro-4-fluorophenol

> <Source>
Chemidplus3DMolFile

> <Tox>
4.130

> <CAS>
2613-23-2

$$$$

  CDK

 11 10  0  0  0  0  0  0  0  0999 V2000
    0.0000    1.0321    0.0000 C   0  0  0  0  0  0  0  0  0  0  0  0
    0.8773    1.4965    0.0000 C   0  0  0  0  0  0  0  0  0  0  0  0
    1.7545    1.0321    0.0000 C   0  0  0  0  0  0  0  0  0  0  0  0
    2.6834    1.4965    0.0000 C   0  0  0  0  0  0  0  0  0  0  0  0
    3.5091    1.0321    0.0000 C   0  0  0  0  0  0  0  0  0  0  0  0
    4.3863    1.4965    0.0000 C   0  0  0  0  0  0  0  0  0  0  0  0
    5.3152    1.0321    0.0000 C   0  0  0  0  0  0  0  0  0  0  0  0
    6.1925    1.4965    0.0000 C   0  0  0  0  0  0  0  0  0  0  0  0
    5.3152    0.0000    0.0000 Br  0  0  0  0  0  0  0  0  0  0  0  0
    7.0697    1.0321    0.0000 O   0  0  0  0  0  0  0  0  0  0  0  0
    6.1925    2.4770    0.0000 O   0  0  0  0  0  0  0  0  0  0  0  0
  1  2  1  0  0  0  0 
  2  3  1  0  0  0  0 
  3  4  1  0  0  0  0 
  4  5  1  0  0  0  0 
  5  6  1  0  0  0  0 
  6  7  1  0  0  0  0 
  7  8  1  0  0  0  0 
  7  9  1  0  0  0  0 
  8 10  1  0  0  0  0 
  8 11  2  0  0  0  0 
M  END
> <Name>
2-Bromooctanoic acid

> <Source>
NIST2DMolFile

> <Tox>
3.491

> <CAS>
2623-82-7

$$$$

  CDK

  7  7  0  0  0  0  0  0  0  0999 V2000
    2.0062    1.7756    0.6577 C   0  0  0  0  0  0  0  0  0  0  0  0
    0.7450    1.0151    0.6283 C   0  0  0  0  0  0  0  0  0  0  0  0
    3.2332    1.3242    0.3442 C   0  0  0  0  0  0  0  0  0  0  0  0
    2.0204    3.2191    1.0772 C   0  0  0  0  0  0  0  0  0  0  0  0
    4.2366    2.4075    0.5131 C   0  0  0  0  0  0  0  0  0  0  0  0
    3.4893    3.6484    0.9877 C   0  0  0  0  0  0  0  0  0  0  0  0
    5.4293    2.3257    0.3127 O   0  0  0  0  0  0  0  0  0  0  0  0
  1  2  1  0  0  0  0 
  3  1  2  0  0  0  0 
  1  4  1  0  0  0  0 
  5  3  1  0  0  0  0 
  4  6  1  0  0  0  0 
  6  5  1  0  0  0  0 
  5  7  2  0  0  0  0 
M  END
> <Name>
3-methylcyclopent-2-en-1-one

> <Source>
NIST3DMolFile

> <Tox>
1.680

> <CAS>
2758-18-1

$$$$

  CDK

  8  7  0  0  0  0  0  0  0  0999 V2000
    1.9946   -2.3033    0.0000 C   0  0  0  0  0  0  0  0  0  0  0  0
    3.3259   -2.3033    0.0000 S   0  0  0  0  0  0  0  0  0  0  0  0
    1.3313   -3.4549    0.0000 N   0  0  0  0  0  0  0  0  0  0  0  0
    1.3313   -1.1516    0.0000 N   0  0  0  0  0  0  0  0  0  0  0  0
    0.0000   -3.4549    0.0000 C   0  0  0  0  0  0  0  0  0  0  0  0
    1.9946   -4.6066    0.0000 C   0  0  0  0  0  0  0  0  0  0  0  0
    0.0000   -1.1516    0.0000 C   0  0  0  0  0  0  0  0  0  0  0  0
    1.9946   -0.0000    0.0000 C   0  0  0  0  0  0  0  0  0  0  0  0
  1  2  2  0  0  0  0 
  1  3  1  0  0  0  0 
  1  4  1  0  0  0  0 
  3  5  1  0  0  0  0 
  3  6  1  0  0  0  0 
  4  7  1  0  0  0  0 
  4  8  1  0  0  0  0 
M  END
> <Name>
Urea, 1,1,3,3-tetramethyl-2-thio-

> <Source>
DSSTox2DMolFile

> <Tox>
2.150

> <CAS>
2782-91-4

$$$$

  CDK

 10 10  0  0  0  0  0  0  0  0999 V2000
    1.3539    0.0000    0.0000 C   0  0  0  0  0  0  0  0  0  0  0  0
    0.3009    0.0000    0.0000 C   0  0  0  0  0  0  0  0  0  0  0  0
    1.6548    0.9528    0.0000 C   0  0  0  0  0  0  0  0  0  0  0  0
    0.0000    0.9528    0.0000 C   0  0  0  0  0  0  0  0  0  0  0  0
    0.8023    1.5044    0.0000 S   0  0  0  0  0  0  0  0  0  0  0  0
    2.5073    1.4542    0.0000 C   0  0  0  0  0  0  0  0  0  0  0  0
    2.5073    2.4571    0.0000 O   0  0  0  0  0  0  0  0  0  0  0  0
    3.3096    0.9528    0.0000 O   0  0  0  0  0  0  0  0  0  0  0  0
    4.1621    1.4542    0.0000 C   0  0  0  0  0  0  0  0  0  0  0  0
    5.0647    0.9528    0.0000 C   0  0  0  0  0  0  0  0  0  0  0  0
  1  2  1  0  0  0  0 
  3  1  2  0  0  0  0 
  2  4  2  0  0  0  0 
  5  3  1  0  0  0  0 
  3  6  1  0  0  0  0 
  4  5  1  0  0  0  0 
  6  7  2  0  0  0  0 
  6  8  1  0  0  0  0 
  8  9  1  0  0  0  0 
 10  9  1  0  0  0  0 
M  END
> <Name>
ethyl thiophene-2-carboxylate

> <Source>
NIST2DMolFile

> <Tox>
3.030

> <CAS>
2810-04-0

$$$$

  CDK

 12 12  0  0  0  0  0  0  0  0999 V2000
    2.5362    0.8623    0.0000 C   0  0  0  0  0  0  0  0  0  0  0  0
    1.5724    0.8623    0.0000 C   0  0  0  0  0  0  0  0  0  0  0  0
    3.0434    1.7246    0.0000 C   0  0  0  0  0  0  0  0  0  0  0  0
    1.0652    1.7246    0.0000 C   0  0  0  0  0  0  0  0  0  0  0  0
    1.0652    0.0000    0.0000 C   0  0  0  0  0  0  0  0  0  0  0  0
    2.5362    2.5869    0.0000 C   0  0  0  0  0  0  0  0  0  0  0  0
    4.0579    1.7246    0.0000 N   0  0  0  0  0  0  0  0  0  0  0  0
    1.5724    2.5869    0.0000 C   0  0  0  0  0  0  0  0  0  0  0  0
    0.0507    1.7246    0.0000 O   0  0  0  0  0  0  0  0  0  0  0  0
    0.0000    0.0000    0.0000 Cl  0  0  0  0  0  0  0  0  0  0  0  0
    4.5652    2.5869    0.0000 O   0  0  0  0  0  0  0  0  0  0  0  0
    4.5144    0.8623    0.0000 O   0  0  0  0  0  0  0  0  0  0  0  0
  2  1  2  0  0  0  0 
  1  3  1  0  0  0  0 
  4  2  1  0  0  0  0 
  2  5  1  0  0  0  0 
  3  6  2  0  0  0  0 
  3  7  1  0  0  0  0 
  8  4  2  0  0  0  0 
  4  9  1  0  0  0  0 
  5 10  1  0  0  0  0 
  6  8  1  0  0  0  0 
  7 11  2  0  0  0  0 
  7 12  2  0  0  0  0 
M  END
> <Name>
Phenol, 2-(chloromethyl)-4-nitro-

> <Source>
NIST2DMolFile

> <Tox>
3.750

> <CAS>
2973-19-5

$$$$

  CDK

 12 12  0  0  0  0  0  0  0  0999 V2000
    1.9922   -2.3033    0.0000 C   0  0  0  0  0  0  0  0  0  0  0  0
    1.3282   -1.1487    0.0000 O   0  0  0  0  0  0  0  0  0  0  0  0
    3.3264   -2.3033    0.0000 C   0  0  0  0  0  0  0  0  0  0  0  0
    1.3282   -3.4520    0.0000 C   0  0  0  0  0  0  0  0  0  0  0  0
    1.9922   -0.0000    0.0000 C   0  0  0  0  0  0  0  0  0  0  0  0
    3.9905   -3.4520    0.0000 C   0  0  0  0  0  0  0  0  0  0  0  0
    1.9922   -4.6067    0.0000 C   0  0  0  0  0  0  0  0  0  0  0  0
    0.0000   -3.4520    0.0000 O   0  0  0  0  0  0  0  0  0  0  0  0
    5.3186   -3.4520    0.0000 C   0  0  0  0  0  0  0  0  0  0  0  0
    3.3264   -4.6067    0.0000 C   0  0  0  0  0  0  0  0  0  0  0  0
    1.3282   -5.7554    0.0000 Br  0  0  0  0  0  0  0  0  0  0  0  0
    5.9827   -4.6067    0.0000 O   0  0  0  0  0  0  0  0  0  0  0  0
  1  2  1  0  0  0  0 
  1  3  2  0  0  0  0 
  1  4  1  0  0  0  0 
  2  5  1  0  0  0  0 
  3  6  1  0  0  0  0 
  7  4  2  0  0  0  0 
  4  8  1  0  0  0  0 
  6  9  1  0  0  0  0 
  6 10  2  0  0  0  0 
 10  7  1  0  0  0  0 
  7 11  1  0  0  0  0 
  9 12  2  0  0  0  0 
M  END
> <Name>
Benzaldehyde, 3-bromo-4-hydroxy-5-methoxy-

> <Source>
DSSTox2DMolFile

> <Tox>
3.620

> <CAS>
2973-76-4

$$$$

  CDK

 12 12  0  0  0  0  0  0  0  0999 V2000
    3.5051    0.5080    0.0000 C   0  0  0  0  0  0  0  0  0  0  0  0
    3.5051    1.5240    0.0000 C   0  0  0  0  0  0  0  0  0  0  0  0
    2.5907    0.0000    0.0000 C   0  0  0  0  0  0  0  0  0  0  0  0
    2.5907    1.9812    0.0000 C   0  0  0  0  0  0  0  0  0  0  0  0
    4.3179    1.9812    0.0000 C   0  0  0  0  0  0  0  0  0  0  0  0
    1.7272    0.5080    0.0000 C   0  0  0  0  0  0  0  0  0  0  0  0
    1.7272    1.5240    0.0000 C   0  0  0  0  0  0  0  0  0  0  0  0
    4.3179    2.9971    0.0000 O   0  0  0  0  0  0  0  0  0  0  0  0
    0.8636    0.0000    0.0000 O   0  0  0  0  0  0  0  0  0  0  0  0
    0.8636    1.9812    0.0000 N   0  0  0  0  0  0  0  0  0  0  0  0
    0.8636    2.9971    0.0000 O   0  0  0  0  0  0  0  0  0  0  0  0
    0.0000    1.5240    0.0000 O   0  0  0  0  0  0  0  0  0  0  0  0
  2  1  2  0  0  0  0 
  1  3  1  0  0  0  0 
  4  2  1  0  0  0  0 
  2  5  1  0  0  0  0 
  3  6  2  0  0  0  0 
  7  4  2  0  0  0  0 
  5  8  2  0  0  0  0 
  6  7  1  0  0  0  0 
  6  9  1  0  0  0  0 
  7 10  1  0  0  0  0 
 10 11  2  0  0  0  0 
 10 12  2  0  0  0  0 
M  END
> <Name>
4-Hydroxy-3-nitrobenzaldehyde

> <Source>
NIST2DMolFile

> <Tox>
3.610

> <CAS>
3011-34-5

$$$$

  CDK

  8  7  0  0  0  0  0  0  0  0999 V2000
    3.0143    2.0442    2.1099 C   0  0  0  0  0  0  0  0  0  0  0  0
    4.2040    2.0889    2.1366 C   0  0  0  0  0  0  0  0  0  0  0  0
    1.5617    1.9892    2.0760 C   0  0  0  0  0  0  0  0  0  0  0  0
    5.6566    2.1406    2.1792 C   0  0  0  0  0  0  0  0  0  0  0  0
    1.0944    0.9990    1.0059 C   0  0  0  0  0  0  0  0  0  0  0  0
    1.0975    3.3094    1.8344 O   0  0  0  0  0  0  0  0  0  0  0  0
    6.1612    3.4163    1.4996 C   0  0  0  0  0  0  0  0  0  0  0  0
    6.1365    0.9624    1.5483 O   0  0  0  0  0  0  0  0  0  0  0  0
  1  2  3  0  0  0  0 
  1  3  1  0  0  0  0 
  2  4  1  0  0  0  0 
  3  5  1  0  0  0  0 
  3  6  1  0  0  0  0 
  4  7  1  0  0  0  0 
  4  8  1  0  0  0  0 
M  END
> <Name>
3-Hexyne-2,5-diol

> <Source>
NIST3DMolFile

> <Tox>
2.540

> <CAS>
3031-66-1

$$$$

  CDK

 11 11  0  0  0  0  0  0  0  0999 V2000
    3.0502    0.0000    0.0000 C   0  0  0  0  0  0  0  0  0  0  0  0
    2.0679    0.0000    0.0000 C   0  0  0  0  0  0  0  0  0  0  0  0
    3.5672    0.8272    0.0000 C   0  0  0  0  0  0  0  0  0  0  0  0
    1.5509    0.8272    0.0000 C   0  0  0  0  0  0  0  0  0  0  0  0
    3.0502    1.7060    0.0000 C   0  0  0  0  0  0  0  0  0  0  0  0
    4.6011    0.8272    0.0000 C   0  0  0  0  0  0  0  0  0  0  0  0
    2.0679    1.7060    0.0000 C   0  0  0  0  0  0  0  0  0  0  0  0
    0.5170    0.8272    0.0000 C   0  0  0  0  0  0  0  0  0  0  0  0
    5.5834    0.8272    0.0000 N   0  0  0  0  0  0  0  0  0  0  0  0
    0.0000    0.0000    0.0000 N   0  0  0  0  0  0  0  0  0  0  0  0
    0.0000    1.7060    0.0000 O   0  0  0  0  0  0  0  0  0  0  0  0
  2  1  2  0  0  0  0 
  1  3  1  0  0  0  0 
  4  2  1  0  0  0  0 
  3  5  2  0  0  0  0 
  3  6  1  0  0  0  0 
  7  4  2  0  0  0  0 
  4  8  1  0  0  0  0 
  5  7  1  0  0  0  0 
  6  9  3  0  0  0  0 
  8 10  1  0  0  0  0 
  8 11  2  0  0  0  0 
M  END
> <Name>
Benzamide, p-cyano- (8CI)

> <Source>
NIST2DMolFile

> <Tox>
2.620

> <CAS>
3034-34-2

$$$$

  CDK

  9  8  0  0  0  0  0  0  0  0999 V2000
    3.4855    1.4938    0.0000 C   0  0  0  0  0  0  0  0  0  0  0  0
    2.5892    0.9959    0.0000 C   0  0  0  0  0  0  0  0  0  0  0  0
    4.3320    0.9959    0.0000 C   0  0  0  0  0  0  0  0  0  0  0  0
    1.7427    1.4938    0.0000 O   0  0  0  0  0  0  0  0  0  0  0  0
    2.5892    0.0000    0.0000 O   0  0  0  0  0  0  0  0  0  0  0  0
    5.1784    1.4938    0.0000 C   0  0  0  0  0  0  0  0  0  0  0  0
    0.8963    0.9959    0.0000 C   0  0  0  0  0  0  0  0  0  0  0  0
    6.0747    0.9959    0.0000 Cl  0  0  0  0  0  0  0  0  0  0  0  0
    0.0000    1.4938    0.0000 C   0  0  0  0  0  0  0  0  0  0  0  0
  1  2  1  0  0  0  0 
  1  3  1  0  0  0  0 
  2  4  1  0  0  0  0 
  2  5  2  0  0  0  0 
  3  6  1  0  0  0  0 
  4  7  1  0  0  0  0 
  6  8  1  0  0  0  0 
  7  9  1  0  0  0  0 
M  END
> <Name>
Butyric acid, 4-chloro-, ethyl ester (8CI)

> <Source>
NIST2DMolFile

> <Tox>
2.719

> <CAS>
3153-36-4

$$$$

  CDK

 10 11  0  0  0  0  0  0  0  0999 V2000
   -3.1720    0.7762   -0.2033 S   0  0  0  0  0  0  0  0  0  0  0  0
   -1.4976    1.1195   -0.3063 C   0  0  0  0  0  0  0  0  0  0  0  0
   -2.8668   -0.8519    0.2306 C   0  0  0  0  0  0  0  0  0  0  0  0
   -0.7249    0.0166   -0.0158 C   0  0  0  0  0  0  0  0  0  0  0  0
   -1.5182   -1.1254    0.2949 C   0  0  0  0  0  0  0  0  0  0  0  0
    0.7249   -0.0165   -0.0158 C   0  0  0  0  0  0  0  0  0  0  0  0
    1.5182    1.1254    0.2949 C   0  0  0  0  0  0  0  0  0  0  0  0
    1.4976   -1.1195   -0.3063 C   0  0  0  0  0  0  0  0  0  0  0  0
    2.8668    0.8519    0.2306 C   0  0  0  0  0  0  0  0  0  0  0  0
    3.1720   -0.7763   -0.2033 S   0  0  0  0  0  0  0  0  0  0  0  0
  1  2  1  0  0  0  0 
  1  3  1  0  0  0  0 
  4  2  2  0  0  0  0 
  5  3  2  0  0  0  0 
  4  6  1  0  0  0  0 
  4  5  1  0  0  0  0 
  6  7  1  0  0  0  0 
  6  8  2  0  0  0  0 
  7  9  2  0  0  0  0 
 10  8  1  0  0  0  0 
 10  9  1  0  0  0  0 
M  END
> <Name>
3-thiophen-3-ylthiophene

> <Source>
Chemidplus3DMolFile

> <Tox>
4.000

> <CAS>
3172-56-3

$$$$

  CDK

  5  4  0  0  0  0  0  0  0  0999 V2000
    0.0000    0.0000    0.0000 C   0  0  0  0  0  0  0  0  0  0  0  0
    1.4000    0.0000    0.0000 C   0  0  0  0  0  0  0  0  0  0  0  0
    2.8000    0.0000    0.0000 C   0  0  0  0  0  0  0  0  0  0  0  0
    4.2000    0.0000    0.0000 C   0  0  0  0  0  0  0  0  0  0  0  0
    4.9000    1.2133    0.0000 Br  0  0  0  0  0  0  0  0  0  0  0  0
  1  2  1  0  0  0  0 
  2  3  3  0  0  0  0 
  3  4  1  0  0  0  0 
  4  5  1  0  0  0  0 
M  END
> <Name>
2-Butyne,bromo- (6CI,7CI)

> <Source>
IndexNet2DMolFile

> <Tox>
4.276

> <CAS>
3355-28-0

$$$$

  CDK

  6  5  0  0  0  0  0  0  0  0999 V2000
    1.1535   -1.1566    0.0000 S   0  0  0  0  0  0  0  0  0  0  0  0
    0.4809   -2.2944    0.0000 O   0  0  0  0  0  0  0  0  0  0  0  0
    2.3101   -1.8135    0.0000 O   0  0  0  0  0  0  0  0  0  0  0  0
    0.0000   -0.4809    0.0000 C   0  0  0  0  0  0  0  0  0  0  0  0
    1.8135   -0.0000    0.0000 C   0  0  0  0  0  0  0  0  0  0  0  0
    3.1431   -0.0000    0.0000 C   0  0  0  0  0  0  0  0  0  0  0  0
  1  2  2  0  0  0  0 
  1  3  2  0  0  0  0 
  1  4  1  0  0  0  0 
  1  5  1  0  0  0  0 
  5  6  2  0  0  0  0 
M  END
> <Name>
Ethene, (methylsulfonyl)- (9CI)

> <Source>
DSSTox2DMolFile

> <Tox>
3.990

> <CAS>
3680-02-2

$$$$

  CDK

 11 10  0  0  0  0  0  0  0  0999 V2000
    0.0000    0.9985    0.0000 C   0  0  0  0  0  0  0  0  0  0  0  0
    0.8487    1.4977    0.0000 C   0  0  0  0  0  0  0  0  0  0  0  0
    1.7473    0.9985    0.0000 C   0  0  0  0  0  0  0  0  0  0  0  0
    2.5960    1.4977    0.0000 C   0  0  0  0  0  0  0  0  0  0  0  0
    3.4447    0.9985    0.0000 C   0  0  0  0  0  0  0  0  0  0  0  0
    4.3433    1.4977    0.0000 C   0  0  0  0  0  0  0  0  0  0  0  0
    5.1420    0.9485    0.0000 C   0  0  0  0  0  0  0  0  0  0  0  0
    6.0407    1.4977    0.0000 C   0  0  0  0  0  0  0  0  0  0  0  0
    6.8893    0.9985    0.0000 C   0  0  0  0  0  0  0  0  0  0  0  0
    7.7380    1.4977    0.0000 O   0  0  0  0  0  0  0  0  0  0  0  0
    6.8893    0.0000    0.0000 O   0  0  0  0  0  0  0  0  0  0  0  0
  1  2  1  0  0  0  0 
  2  3  1  0  0  0  0 
  3  4  1  0  0  0  0 
  4  5  1  0  0  0  0 
  5  6  1  0  0  0  0 
  7  6  1  0  0  0  0 
  8  7  2  0  0  0  0 
  8  9  1  0  0  0  0 
  9 10  1  0  0  0  0 
  9 11  2  0  0  0  0 
M  END
> <Name>
2-Nonenoic acid

> <Source>
NIST2DMolFile

> <Tox>
3.600

> <CAS>
3760-11-0

$$$$

  CDK

 10 10  0  0  0  0  0  0  0  0999 V2000
   -1.5128   -0.1364   -1.0343 O   0  0  0  0  0  0  0  0  0  0  0  0
   -1.2347   -0.5086    0.2247 C   0  0  0  0  0  0  0  0  0  0  0  0
   -2.4409    0.8491   -0.9162 C   0  0  0  0  0  0  0  0  0  0  0  0
   -0.2117   -1.6097    0.3480 C   0  0  0  0  0  0  0  0  0  0  0  0
   -1.9320    0.1821    1.1507 C   0  0  0  0  0  0  0  0  0  0  0  0
   -2.7324    1.0824    0.4077 C   0  0  0  0  0  0  0  0  0  0  0  0
    1.1262   -1.2907   -0.3290 C   0  0  0  0  0  0  0  0  0  0  0  0
    1.8420   -0.0888    0.2952 C   0  0  0  0  0  0  0  0  0  0  0  0
    3.1814    0.1764   -0.3934 C   0  0  0  0  0  0  0  0  0  0  0  0
    3.9149    1.3443    0.2466 C   0  0  0  0  0  0  0  0  0  0  0  0
  1  2  1  0  0  0  0 
  1  3  1  0  0  0  0 
  4  2  1  0  0  0  0 
  2  5  2  0  0  0  0 
  6  3  2  0  0  0  0 
  7  4  1  0  0  0  0 
  5  6  1  0  0  0  0 
  7  8  1  0  0  0  0 
  8  9  1  0  0  0  0 
  9 10  1  0  0  0  0 
M  END
> <Name>
2-pentylfuran

> <Source>
Chemidplus3DMolFile

> <Tox>
3.920

> <CAS>
3777-69-3

$$$$

  CDK

  8  7  0  0  0  0  0  0  0  0999 V2000
    3.0520    0.8010    1.6887 C   0  0  0  0  0  0  0  0  0  0  0  0
    4.3707    1.3946    2.1300 C   0  0  0  0  0  0  0  0  0  0  0  0
    2.1173    1.8452    1.0892 C   0  0  0  0  0  0  0  0  0  0  0  0
    5.1091    2.2672    1.1157 C   0  0  0  0  0  0  0  0  0  0  0  0
    4.8380    1.2004    3.2327 O   0  0  0  0  0  0  0  0  0  0  0  0
    0.6663    1.4992    1.3326 C   0  0  0  0  0  0  0  0  0  0  0  0
    4.8511    3.7392    1.2522 C   0  0  0  0  0  0  0  0  0  0  0  0
    5.8312    1.7826    0.2708 O   0  0  0  0  0  0  0  0  0  0  0  0
  1  2  1  0  0  0  0 
  1  3  1  0  0  0  0 
  2  4  1  0  0  0  0 
  2  5  2  0  0  0  0 
  3  6  1  0  0  0  0 
  4  7  1  0  0  0  0 
  4  8  2  0  0  0  0 
M  END
> <Name>
2,3-Hexanedione

> <Source>
NIST3DMolFile

> <Tox>
2.790

> <CAS>
3848-24-6

$$$$

  CDK

  8  7  0  0  0  0  0  0  0  0999 V2000
    3.4834    0.4976    0.0000 C   0  0  0  0  0  0  0  0  0  0  0  0
    2.5877    0.0000    0.0000 C   0  0  0  0  0  0  0  0  0  0  0  0
    4.3294    0.0000    0.0000 C   0  0  0  0  0  0  0  0  0  0  0  0
    1.7417    0.4976    0.0000 C   0  0  0  0  0  0  0  0  0  0  0  0
    5.1754    0.4976    0.0000 C   0  0  0  0  0  0  0  0  0  0  0  0
    0.8957    0.0000    0.0000 C   0  0  0  0  0  0  0  0  0  0  0  0
    6.0711    0.0000    0.0000 O   0  0  0  0  0  0  0  0  0  0  0  0
    0.0000    0.4976    0.0000 N   0  0  0  0  0  0  0  0  0  0  0  0
  1  2  1  0  0  0  0 
  1  3  1  0  0  0  0 
  2  4  1  0  0  0  0 
  3  5  1  0  0  0  0 
  4  6  1  0  0  0  0 
  5  7  1  0  0  0  0 
  6  8  1  0  0  0  0 
M  END
> <Name>
1-Hexanol, 6-amino- (8CI)(9CI)

> <Source>
NIST2DMolFile

> <Tox>
2.042

> <CAS>
4048-33-3

$$$$

  CDK

 11 10  0  0  0  0  0  0  0  0999 V2000
   10.3589   -0.0000    0.0000 C   0  0  0  0  0  0  0  0  0  0  0  0
   11.5099   -0.6676    0.0000 O   0  0  0  0  0  0  0  0  0  0  0  0
    9.2079   -0.6676    0.0000 C   0  0  0  0  0  0  0  0  0  0  0  0
    8.0569   -1.3236    0.0000 C   0  0  0  0  0  0  0  0  0  0  0  0
    6.9059   -1.9912    0.0000 C   0  0  0  0  0  0  0  0  0  0  0  0
    5.7549   -1.3236    0.0000 C   0  0  0  0  0  0  0  0  0  0  0  0
    4.6040   -1.9912    0.0000 C   0  0  0  0  0  0  0  0  0  0  0  0
    3.4530   -1.3236    0.0000 C   0  0  0  0  0  0  0  0  0  0  0  0
    2.3020   -1.9912    0.0000 C   0  0  0  0  0  0  0  0  0  0  0  0
    1.1510   -1.3236    0.0000 C   0  0  0  0  0  0  0  0  0  0  0  0
    0.0000   -1.9912    0.0000 C   0  0  0  0  0  0  0  0  0  0  0  0
  1  2  1  0  0  0  0 
  1  3  1  0  0  0  0 
  3  4  3  0  0  0  0 
  4  5  1  0  0  0  0 
  5  6  1  0  0  0  0 
  6  7  1  0  0  0  0 
  7  8  1  0  0  0  0 
  8  9  1  0  0  0  0 
  9 10  1  0  0  0  0 
 10 11  1  0  0  0  0 
M  END
> <Name>
2-Decyn-1-ol

> <Source>
DSSTox2DMolFile

> <Tox>
3.986

> <CAS>
4117-14-0

$$$$

  CDK

 10 10  0  0  0  0  0  0  0  0999 V2000
   -2.2691    1.4179   -0.0005 O   0  0  0  0  0  0  0  0  0  0  0  0
   -1.7030    0.2988    0.0001 N   0  0  0  0  0  0  0  0  0  0  0  0
   -2.3493   -0.7759   -0.0001 O   0  0  0  0  0  0  0  0  0  0  0  0
   -0.2825    0.2469    0.0006 C   0  0  0  0  0  0  0  0  0  0  0  0
    0.4197   -0.9475    0.0000 C   0  0  0  0  0  0  0  0  0  0  0  0
    0.4470    1.4306    0.0004 C   0  0  0  0  0  0  0  0  0  0  0  0
    1.7689   -1.0323   -0.0002 N   0  0  0  0  0  0  0  0  0  0  0  0
   -0.3126   -2.1617    0.0001 N   0  0  0  0  0  0  0  0  0  0  0  0
    1.8368    1.3842   -0.0001 C   0  0  0  0  0  0  0  0  0  0  0  0
    2.4441    0.1389   -0.0003 C   0  0  0  0  0  0  0  0  0  0  0  0
  1  2  1  0  0  0  0 
  3  2  2  0  0  0  0 
  2  4  1  0  0  0  0 
  4  5  2  0  0  0  0 
  4  6  1  0  0  0  0 
  7  5  1  0  0  0  0 
  8  5  1  0  0  0  0 
  6  9  2  0  0  0  0 
  7 10  2  0  0  0  0 
  9 10  1  0  0  0  0 
M  CHG  1   1  -1
M  CHG  1   2   1
M  END
> <Name>
3-nitropyridin-2-amine

> <Source>
Chemidplus3DMolFile

> <Tox>
2.990

> <CAS>
4214-75-9

$$$$

  CDK

 10  9  0  0  0  0  0  0  0  0999 V2000
    0.7438   -0.5849    0.0581 O   0  0  0  0  0  0  0  0  0  0  0  0
   -0.5148    0.0758    0.0107 C   0  0  0  0  0  0  0  0  0  0  0  0
    1.8412    0.2218   -0.0200 C   0  0  0  0  0  0  0  0  0  0  0  0
   -1.6193   -0.9695    0.1094 C   0  0  0  0  0  0  0  0  0  0  0  0
    1.8457    1.4381   -0.1249 O   0  0  0  0  0  0  0  0  0  0  0  0
    3.0429   -0.6357    0.0427 C   0  0  0  0  0  0  0  0  0  0  0  0
   -3.0374   -0.3792    0.0486 C   0  0  0  0  0  0  0  0  0  0  0  0
    4.2599   -0.0873   -0.0148 C   0  0  0  0  0  0  0  0  0  0  0  0
   -3.2298    0.6293    1.1837 C   0  0  0  0  0  0  0  0  0  0  0  0
   -3.3321    0.2916   -1.2937 C   0  0  0  0  0  0  0  0  0  0  0  0
  1  2  1  0  0  0  0 
  1  3  1  0  0  0  0 
  4  2  1  0  0  0  0 
  5  3  2  0  0  0  0 
  3  6  1  0  0  0  0 
  7  4  1  0  0  0  0 
  6  8  2  0  0  0  0 
  7  9  1  0  0  0  0 
  7 10  1  0  0  0  0 
M  END
> <Name>
3-methylbutyl prop-2-enoate

> <Source>
Chemidplus3DMolFile

> <Tox>
3.410

> <CAS>
4245-35-6

$$$$

  CDK

  8  7  0  0  0  0  0  0  0  0999 V2000
    3.4482    0.0000    0.0000 C   0  0  0  0  0  0  0  0  0  0  0  0
    2.5986    0.4997    0.0000 S   0  0  0  0  0  0  0  0  0  0  0  0
    4.3477    0.4997    0.0000 C   0  0  0  0  0  0  0  0  0  0  0  0
    1.7491    0.0000    0.0000 C   0  0  0  0  0  0  0  0  0  0  0  0
    2.5986    1.4992    0.0000 O   0  0  0  0  0  0  0  0  0  0  0  0
    5.1972    0.0000    0.0000 C   0  0  0  0  0  0  0  0  0  0  0  0
    0.8495    0.4997    0.0000 C   0  0  0  0  0  0  0  0  0  0  0  0
    0.0000    0.0000    0.0000 C   0  0  0  0  0  0  0  0  0  0  0  0
  1  2  1  0  0  0  0 
  1  3  1  0  0  0  0 
  2  4  1  0  0  0  0 
  2  5  2  0  0  0  0 
  3  6  1  0  0  0  0 
  4  7  1  0  0  0  0 
  7  8  1  0  0  0  0 
M  END
> <Name>
Propyl sulfoxide (8CI)

> <Source>
NIST2DMolFile

> <Tox>
1.780

> <CAS>
4253-91-2

$$$$

  CDK

 12 12  0  0  0  0  0  0  0  0999 V2000
    2.4902    0.8467    0.0000 C   0  0  0  0  0  0  0  0  0  0  0  0
    2.9883    1.7432    0.0000 O   0  0  0  0  0  0  0  0  0  0  0  0
    1.4941    0.8467    0.0000 C   0  0  0  0  0  0  0  0  0  0  0  0
    3.9843    1.7432    0.0000 C   0  0  0  0  0  0  0  0  0  0  0  0
    0.9961    0.0000    0.0000 C   0  0  0  0  0  0  0  0  0  0  0  0
    4.4824    2.5898    0.0000 C   0  0  0  0  0  0  0  0  0  0  0  0
    4.4824    0.8467    0.0000 C   0  0  0  0  0  0  0  0  0  0  0  0
    0.0000    0.0000    0.0000 C   0  0  0  0  0  0  0  0  0  0  0  0
    5.4785    2.5898    0.0000 C   0  0  0  0  0  0  0  0  0  0  0  0
    5.4785    0.8467    0.0000 C   0  0  0  0  0  0  0  0  0  0  0  0
    5.9765    1.7432    0.0000 C   0  0  0  0  0  0  0  0  0  0  0  0
    6.9726    1.7432    0.0000 N   0  0  0  0  0  0  0  0  0  0  0  0
  1  2  1  0  0  0  0 
  1  3  1  0  0  0  0 
  2  4  1  0  0  0  0 
  3  5  1  0  0  0  0 
  6  4  2  0  0  0  0 
  4  7  1  0  0  0  0 
  5  8  1  0  0  0  0 
  9  6  1  0  0  0  0 
  7 10  2  0  0  0  0 
 11  9  2  0  0  0  0 
 10 11  1  0  0  0  0 
 11 12  1  0  0  0  0 
M  END
> <Name>
Benzenamine, 4-butoxy-

> <Source>
NIST2DMolFile

> <Tox>
3.610

> <CAS>
4344-55-2

$$$$

  CDK

  8  7  0  0  0  0  0  0  0  0999 V2000
    2.3488    0.5839   -0.0464 C   0  0  0  0  0  0  0  0  0  0  0  0
    1.0543   -0.2299   -0.1308 C   0  0  0  0  0  0  0  0  0  0  0  0
    3.4058   -0.3390    0.0881 O   0  0  0  0  0  0  0  0  0  0  0  0
   -0.1231    0.6676   -0.2518 N   0  0  0  0  0  0  0  0  0  0  0  0
   -1.4460   -0.0038    0.0114 C   0  0  0  0  0  0  0  0  0  0  0  0
   -2.5416    1.0629   -0.0940 C   0  0  0  0  0  0  0  0  0  0  0  0
   -1.6995   -1.0796   -1.0484 C   0  0  0  0  0  0  0  0  0  0  0  0
   -1.4958   -0.6406    1.4064 C   0  0  0  0  0  0  0  0  0  0  0  0
  1  2  1  0  0  0  0 
  1  3  1  0  0  0  0 
  2  4  1  0  0  0  0 
  4  5  1  0  0  0  0 
  5  6  1  0  0  0  0 
  5  7  1  0  0  0  0 
  5  8  1  0  0  0  0 
M  END
> <Name>
Ethanol, 2-((1,1-dimethylethyl)amino)-

> <Source>
DougDB3DMolFile

> <Tox>
1.327

> <CAS>
4620-70-6

$$$$

  CDK

  9  8  0  0  0  0  0  0  0  0999 V2000
    0.0000   -1.9937    0.0000 C   0  0  0  0  0  0  0  0  0  0  0  0
    1.1524   -1.3311    0.0000 C   0  0  0  0  0  0  0  0  0  0  0  0
    1.1524   -0.0000    0.0000 C   0  0  0  0  0  0  0  0  0  0  0  0
    2.3049   -1.9937    0.0000 C   0  0  0  0  0  0  0  0  0  0  0  0
    2.3049   -3.3248    0.0000 O   0  0  0  0  0  0  0  0  0  0  0  0
    3.4573   -1.3311    0.0000 O   0  0  0  0  0  0  0  0  0  0  0  0
    4.6097   -1.9937    0.0000 C   0  0  0  0  0  0  0  0  0  0  0  0
    5.7622   -1.3311    0.0000 C   0  0  0  0  0  0  0  0  0  0  0  0
    4.6097   -3.3248    0.0000 C   0  0  0  0  0  0  0  0  0  0  0  0
  1  2  2  0  0  0  0 
  2  3  1  0  0  0  0 
  2  4  1  0  0  0  0 
  4  5  2  0  0  0  0 
  4  6  1  0  0  0  0 
  6  7  1  0  0  0  0 
  7  8  1  0  0  0  0 
  7  9  1  0  0  0  0 
M  END
> <Name>
2-Propenoic acid, 2-methyl-, 1-methylethyl ester

> <Source>
DSSTox2DMolFile

> <Tox>
2.120

> <CAS>
4655-34-9

$$$$

  CDK

  9  8  0  0  0  0  0  0  0  0999 V2000
   -3.6911    0.0774    0.0308 Br  0  0  0  0  0  0  0  0  0  0  0  0
   -2.0505   -0.9552   -0.0233 C   0  0  0  0  0  0  0  0  0  0  0  0
   -0.8692   -0.0257   -0.0149 C   0  0  0  0  0  0  0  0  0  0  0  0
    0.2719   -0.7843   -0.0030 O   0  0  0  0  0  0  0  0  0  0  0  0
   -0.9040    1.1965   -0.0188 O   0  0  0  0  0  0  0  0  0  0  0  0
    1.5000   -0.0554    0.0051 C   0  0  0  0  0  0  0  0  0  0  0  0
    1.5378    0.8193    1.2575 C   0  0  0  0  0  0  0  0  0  0  0  0
    2.6387   -1.0727    0.0256 C   0  0  0  0  0  0  0  0  0  0  0  0
    1.5664    0.8001   -1.2591 C   0  0  0  0  0  0  0  0  0  0  0  0
  1  2  1  0  0  0  0 
  3  2  1  0  0  0  0 
  4  3  1  0  0  0  0 
  5  3  2  0  0  0  0 
  4  6  1  0  0  0  0 
  6  7  1  0  0  0  0 
  6  8  1  0  0  0  0 
  6  9  1  0  0  0  0 
M  END
> <Name>
tert-butyl 2-bromoacetate

> <Source>
Chemidplus3DMolFile

> <Tox>
5.409

> <CAS>
5292-43-3

$$$$

  CDK

  9  8  0  0  0  0  0  0  0  0999 V2000
    0.0000    0.0000    0.0000 C   0  0  0  0  0  0  0  0  0  0  0  0
   -1.2000   -0.0600    0.9400 C   0  0  0  0  0  0  0  0  0  0  0  0
   -0.9200    0.6200    2.2800 C   0  0  0  0  0  0  0  0  0  0  0  0
   -2.1200    0.5400    3.2400 C   0  0  0  0  0  0  0  0  0  0  0  0
   -1.8600    1.2800    4.5600 C   0  0  0  0  0  0  0  0  0  0  0  0
   -1.1400    0.4200    5.5600 C   0  0  0  0  0  0  0  0  0  0  0  0
    0.2400   -0.1400    5.3200 C   0  0  0  0  0  0  0  0  0  0  0  0
   -1.7200    0.1600    6.6600 N   0  0  0  0  0  0  0  0  0  0  0  0
   -1.0600   -0.6600    7.6400 O   0  0  0  0  0  0  0  0  0  0  0  0
  1  2  1  0  0  0  0 
  2  3  1  0  0  0  0 
  3  4  1  0  0  0  0 
  4  5  1  0  0  0  0 
  5  6  1  0  0  0  0 
  6  7  1  0  0  0  0 
  6  8  2  0  0  0  0 
  8  9  1  0  0  0  0 
M  END
> <Name>
2-Heptanone, oxime

> <Source>
NIH3DMolFile

> <Tox>
3.103

> <CAS>
5314-31-8

$$$$

  CDK

  7  6  0  0  0  0  0  0  0  0999 V2000
    1.6706   -0.7532    0.3106 C   0  0  0  0  0  0  0  0  0  0  0  0
    0.5131    0.1369   -0.2025 C   0  0  0  0  0  0  0  0  0  0  0  0
    2.8472   -0.3344   -0.3430 O   0  0  0  0  0  0  0  0  0  0  0  0
   -0.8270   -0.4180    0.3000 C   0  0  0  0  0  0  0  0  0  0  0  0
    0.6315    1.4594    0.2867 O   0  0  0  0  0  0  0  0  0  0  0  0
   -2.0092    0.1962   -0.4327 C   0  0  0  0  0  0  0  0  0  0  0  0
   -3.3186   -0.3793    0.0584 C   0  0  0  0  0  0  0  0  0  0  0  0
  1  2  1  0  0  0  0 
  1  3  1  0  0  0  0 
  2  4  1  0  0  0  0 
  2  5  1  0  0  0  0 
  4  6  1  0  0  0  0 
  6  7  1  0  0  0  0 
M  END
> <Name>
Pentane-1,2-diol

> <Source>
DougDB3DMolFile

> <Tox>
1.373

> <CAS>
5343-92-0

$$$$

  CDK

  9  9  0  0  0  0  0  0  0  0999 V2000
    1.9793    2.5883    0.0000 C   0  0  0  0  0  0  0  0  0  0  0  0
    1.4718    1.7255    0.0000 C   0  0  0  0  0  0  0  0  0  0  0  0
    2.9943    2.5883    0.0000 C   0  0  0  0  0  0  0  0  0  0  0  0
    1.9793    0.8628    0.0000 C   0  0  0  0  0  0  0  0  0  0  0  0
    0.5075    1.7255    0.0000 C   0  0  0  0  0  0  0  0  0  0  0  0
    3.5018    1.7255    0.0000 C   0  0  0  0  0  0  0  0  0  0  0  0
    2.9943    0.8628    0.0000 C   0  0  0  0  0  0  0  0  0  0  0  0
    1.4718    0.0000    0.0000 N   0  0  0  0  0  0  0  0  0  0  0  0
    0.0000    0.8628    0.0000 O   0  0  0  0  0  0  0  0  0  0  0  0
  1  2  2  0  0  0  0 
  3  1  1  0  0  0  0 
  2  4  1  0  0  0  0 
  2  5  1  0  0  0  0 
  6  3  2  0  0  0  0 
  4  7  2  0  0  0  0 
  4  8  1  0  0  0  0 
  5  9  1  0  0  0  0 
  7  6  1  0  0  0  0 
M  END
> <Name>
Benzenemethanol, 2-amino-

> <Source>
NIST2DMolFile

> <Tox>
1.930

> <CAS>
5344-90-1

$$$$

  CDK

  9  8  0  0  0  0  0  0  0  0999 V2000
    2.5892    1.4938    0.0000 C   0  0  0  0  0  0  0  0  0  0  0  0
    1.7427    0.9959    0.0000 C   0  0  0  0  0  0  0  0  0  0  0  0
    3.4855    0.9959    0.0000 C   0  0  0  0  0  0  0  0  0  0  0  0
    0.8963    1.4938    0.0000 O   0  0  0  0  0  0  0  0  0  0  0  0
    1.7427    0.0000    0.0000 O   0  0  0  0  0  0  0  0  0  0  0  0
    4.3320    1.4938    0.0000 C   0  0  0  0  0  0  0  0  0  0  0  0
    0.0000    0.9959    0.0000 C   0  0  0  0  0  0  0  0  0  0  0  0
    5.1784    0.9959    0.0000 C   0  0  0  0  0  0  0  0  0  0  0  0
    6.0747    1.4938    0.0000 Br  0  0  0  0  0  0  0  0  0  0  0  0
  1  2  1  0  0  0  0 
  1  3  1  0  0  0  0 
  2  4  1  0  0  0  0 
  2  5  2  0  0  0  0 
  3  6  1  0  0  0  0 
  4  7  1  0  0  0  0 
  6  8  1  0  0  0  0 
  8  9  1  0  0  0  0 
M  END
> <Name>
Valeric acid, 5-bromo-, methyl ester (8CI)

> <Source>
NIST2DMolFile

> <Tox>
2.920

> <CAS>
5454-83-1

$$$$

  CDK

 10  9  0  0  0  0  0  0  0  0999 V2000
   -1.3338   -0.8083   -0.1489 C   0  0  0  0  0  0  0  0  0  0  0  0
   -2.5463   -0.1750   -0.8166 C   0  0  0  0  0  0  0  0  0  0  0  0
   -1.3221   -1.8149    0.5284 O   0  0  0  0  0  0  0  0  0  0  0  0
   -0.1816   -0.1316   -0.4020 O   0  0  0  0  0  0  0  0  0  0  0  0
   -3.0814    0.8906    0.0008 C   0  0  0  0  0  0  0  0  0  0  0  0
    1.0310   -0.6090    0.1886 C   0  0  0  0  0  0  0  0  0  0  0  0
   -3.5150    1.7494    0.6465 N   0  0  0  0  0  0  0  0  0  0  0  0
    2.1265    0.3604   -0.2442 C   0  0  0  0  0  0  0  0  0  0  0  0
    3.4635   -0.0659    0.3409 C   0  0  0  0  0  0  0  0  0  0  0  0
    4.5701    0.8774   -0.0734 C   0  0  0  0  0  0  0  0  0  0  0  0
  1  2  1  0  0  0  0 
  1  3  2  0  0  0  0 
  1  4  1  0  0  0  0 
  2  5  1  0  0  0  0 
  4  6  1  0  0  0  0 
  5  7  3  0  0  0  0 
  6  8  1  0  0  0  0 
  8  9  1  0  0  0  0 
  9 10  1  0  0  0  0 
M  END
> <Name>
Acetic acid, cyano-, butyl ester

> <Source>
DougDB3DMolFile

> <Tox>
2.390

> <CAS>
5459-58-5

$$$$

  CDK

  8  7  0  0  0  0  0  0  0  0999 V2000
    1.7160    1.4636    0.0000 C   0  0  0  0  0  0  0  0  0  0  0  0
    1.7160    2.5235    0.0000 C   0  0  0  0  0  0  0  0  0  0  0  0
    0.7066    1.4636    0.0000 C   0  0  0  0  0  0  0  0  0  0  0  0
    2.7254    1.4636    0.0000 C   0  0  0  0  0  0  0  0  0  0  0  0
    1.7160    0.5552    0.0000 C   0  0  0  0  0  0  0  0  0  0  0  0
    0.8580    0.0000    0.0000 C   0  0  0  0  0  0  0  0  0  0  0  0
    2.5740    0.0505    0.0000 O   0  0  0  0  0  0  0  0  0  0  0  0
    0.0000    0.5047    0.0000 Br  0  0  0  0  0  0  0  0  0  0  0  0
  1  2  1  0  0  0  0 
  1  3  1  0  0  0  0 
  1  4  1  0  0  0  0 
  1  5  1  0  0  0  0 
  5  6  1  0  0  0  0 
  5  7  2  0  0  0  0 
  8  6  1  0  0  0  0 
M  END
> <Name>
2-Butanone, 1-bromo-3,3-dimethyl-

> <Source>
NIST2DMolFile

> <Tox>
5.377

> <CAS>
5469-26-1

$$$$

  CDK

 10  9  0  0  0  0  0  0  0  0999 V2000
    5.2715   -0.5494    0.2518 O   0  0  0  0  0  0  0  0  0  0  0  0
    4.2332   -0.2851   -0.3425 C   0  0  0  0  0  0  0  0  0  0  0  0
    2.9525   -0.1012    0.3678 C   0  0  0  0  0  0  0  0  0  0  0  0
    1.8533    0.1875   -0.3393 C   0  0  0  0  0  0  0  0  0  0  0  0
    0.5596    0.3852    0.2753 C   0  0  0  0  0  0  0  0  0  0  0  0
   -0.5484    0.6747   -0.4231 C   0  0  0  0  0  0  0  0  0  0  0  0
   -1.8976    0.8769    0.2049 C   0  0  0  0  0  0  0  0  0  0  0  0
   -2.9011   -0.1676   -0.2879 C   0  0  0  0  0  0  0  0  0  0  0  0
   -4.2659    0.0181    0.3759 C   0  0  0  0  0  0  0  0  0  0  0  0
   -5.2572   -1.0392   -0.0830 C   0  0  0  0  0  0  0  0  0  0  0  0
  1  2  2  0  0  0  0 
  3  2  1  0  0  0  0 
  4  3  2  0  0  0  0 
  5  4  1  0  0  0  0 
  6  5  2  0  0  0  0 
  7  6  1  0  0  0  0 
  8  7  1  0  0  0  0 
  8  9  1  0  0  0  0 
  9 10  1  0  0  0  0 
M  END
> <Name>
(2E,4E)-nona-2,4-dienal

> <Source>
Chemidplus3DMolFile

> <Tox>
4.220

> <CAS>
5910-87-2

$$$$

  CDK

  7  6  0  0  0  0  0  0  0  0999 V2000
    0.0000    0.0000    0.0000 Cl  0  0  0  0  0  0  0  0  0  0  0  0
    0.9247    0.4624    0.0000 C   0  0  0  0  0  0  0  0  0  0  0  0
    1.7981    0.0000    0.0000 C   0  0  0  0  0  0  0  0  0  0  0  0
    2.6715    0.4624    0.0000 C   0  0  0  0  0  0  0  0  0  0  0  0
    3.5448    0.0000    0.0000 C   0  0  0  0  0  0  0  0  0  0  0  0
    4.4182    0.4624    0.0000 C   0  0  0  0  0  0  0  0  0  0  0  0
    5.2916    0.9761    0.0000 N   0  0  0  0  0  0  0  0  0  0  0  0
  1  2  1  0  0  0  0 
  2  3  1  0  0  0  0 
  3  4  1  0  0  0  0 
  4  5  1  0  0  0  0 
  5  6  1  0  0  0  0 
  6  7  3  0  0  0  0 
M  END
> <Name>
Pentanenitrile, 5-chloro-

> <Source>
NIST2DMolFile

> <Tox>
2.366

> <CAS>
6280-87-1

$$$$

  CDK

  7  6  0  0  0  0  0  0  0  0999 V2000
    3.4478    0.4997    0.0000 C   0  0  0  0  0  0  0  0  0  0  0  0
    2.5984    0.0000    0.0000 C   0  0  0  0  0  0  0  0  0  0  0  0
    4.3473    0.0000    0.0000 C   0  0  0  0  0  0  0  0  0  0  0  0
    1.7489    0.4997    0.0000 O   0  0  0  0  0  0  0  0  0  0  0  0
    5.1968    0.4997    0.0000 N   0  0  0  0  0  0  0  0  0  0  0  0
    0.8495    0.0000    0.0000 C   0  0  0  0  0  0  0  0  0  0  0  0
    0.0000    0.4997    0.0000 C   0  0  0  0  0  0  0  0  0  0  0  0
  1  2  1  0  0  0  0 
  1  3  1  0  0  0  0 
  2  4  1  0  0  0  0 
  3  5  1  0  0  0  0 
  4  6  1  0  0  0  0 
  6  7  1  0  0  0  0 
M  END
> <Name>
1-Propanamine, 3-ethoxy-

> <Source>
NIST2DMolFile

> <Tox>
1.297

> <CAS>
6291-85-6

$$$$

  CDK

 14 14  0  0  0  0  0  0  0  0999 V2000
    2.5325    0.8610    0.0000 C   0  0  0  0  0  0  0  0  0  0  0  0
    1.5195    0.8610    0.0000 C   0  0  0  0  0  0  0  0  0  0  0  0
    2.9883    1.6714    0.0000 C   0  0  0  0  0  0  0  0  0  0  0  0
    1.0130    1.6714    0.0000 C   0  0  0  0  0  0  0  0  0  0  0  0
    1.0130    0.0000    0.0000 Cl  0  0  0  0  0  0  0  0  0  0  0  0
    2.4818    2.5831    0.0000 C   0  0  0  0  0  0  0  0  0  0  0  0
    4.0013    1.6714    0.0000 N   0  0  0  0  0  0  0  0  0  0  0  0
    1.5195    2.5831    0.0000 C   0  0  0  0  0  0  0  0  0  0  0  0
    0.0000    1.6714    0.0000 Cl  0  0  0  0  0  0  0  0  0  0  0  0
    2.9883    3.4442    0.0000 N   0  0  0  0  0  0  0  0  0  0  0  0
    4.5585    2.5831    0.0000 O   0  0  0  0  0  0  0  0  0  0  0  0
    4.5078    0.8610    0.0000 O   0  0  0  0  0  0  0  0  0  0  0  0
    2.4818    4.3559    0.0000 O   0  0  0  0  0  0  0  0  0  0  0  0
    3.9507    3.4442    0.0000 O   0  0  0  0  0  0  0  0  0  0  0  0
  2  1  2  0  0  0  0 
  1  3  1  0  0  0  0 
  4  2  1  0  0  0  0 
  2  5  1  0  0  0  0 
  3  6  2  0  0  0  0 
  3  7  1  0  0  0  0 
  8  4  2  0  0  0  0 
  4  9  1  0  0  0  0 
  6  8  1  0  0  0  0 
  6 10  1  0  0  0  0 
  7 11  2  0  0  0  0 
  7 12  2  0  0  0  0 
 10 13  2  0  0  0  0 
 10 14  2  0  0  0  0 
M  END
> <Name>
Benzene, 1,2-dichloro-4,5-dinitro-

> <Source>
NIST2DMolFile

> <Tox>
5.210

> <CAS>
6306-39-4

$$$$

  CDK

 10 11  0  0  0  0  0  0  0  0999 V2000
    0.0000    0.0000    0.0000 O   0  0  0  0  0  0  0  0  0  0  0  0
    0.3200    1.0600    0.8800 C   0  0  0  0  0  0  0  0  0  0  0  0
    1.7600    1.4800    0.6400 C   0  0  0  0  0  0  0  0  0  0  0  0
   -0.5000    2.3200    0.5400 C   0  0  0  0  0  0  0  0  0  0  0  0
    1.8200    2.7000    0.0000 C   0  0  0  0  0  0  0  0  0  0  0  0
    2.9200    0.7800    1.0200 C   0  0  0  0  0  0  0  0  0  0  0  0
    0.4400    3.2200   -0.2800 C   0  0  0  0  0  0  0  0  0  0  0  0
    3.0400    3.3000   -0.3400 C   0  0  0  0  0  0  0  0  0  0  0  0
    4.1600    1.3800    0.6800 C   0  0  0  0  0  0  0  0  0  0  0  0
    4.2200    2.6200    0.0200 C   0  0  0  0  0  0  0  0  0  0  0  0
  1  2  1  0  0  0  0 
  2  3  1  0  0  0  0 
  2  4  1  0  0  0  0 
  3  5  2  0  0  0  0 
  3  6  1  0  0  0  0 
  7  4  1  0  0  0  0 
  5  8  1  0  0  0  0 
  5  7  1  0  0  0  0 
  9  6  2  0  0  0  0 
  8 10  2  0  0  0  0 
 10  9  1  0  0  0  0 
M  END
> <Name>
2,3-dihydro-1H-inden-1-ol

> <Source>
NIH3DMolFile

> <Tox>
2.420

> <CAS>
6351-10-6

$$$$

  CDK

 12 12  0  0  0  0  0  0  0  0999 V2000
    3.9918   -5.7573    0.0000 Cl  0  0  0  0  0  0  0  0  0  0  0  0
    3.3275   -4.6082    0.0000 C   0  0  0  0  0  0  0  0  0  0  0  0
    1.9929   -4.6082    0.0000 C   0  0  0  0  0  0  0  0  0  0  0  0
    3.9918   -3.4532    0.0000 C   0  0  0  0  0  0  0  0  0  0  0  0
    1.3286   -3.4532    0.0000 C   0  0  0  0  0  0  0  0  0  0  0  0
    3.3275   -2.3041    0.0000 C   0  0  0  0  0  0  0  0  0  0  0  0
    5.3204   -3.4532    0.0000 C   0  0  0  0  0  0  0  0  0  0  0  0
    1.9929   -2.3041    0.0000 C   0  0  0  0  0  0  0  0  0  0  0  0
    5.9847   -2.3041    0.0000 O   0  0  0  0  0  0  0  0  0  0  0  0
    1.3286   -1.1491    0.0000 N   0  0  0  0  0  0  0  0  0  0  0  0
    1.9929   -0.0000    0.0000 O   0  0  0  0  0  0  0  0  0  0  0  0
    0.0000   -1.1491    0.0000 O   0  0  0  0  0  0  0  0  0  0  0  0
  1  2  1  0  0  0  0 
  2  3  2  0  0  0  0 
  2  4  1  0  0  0  0 
  3  5  1  0  0  0  0 
  4  6  2  0  0  0  0 
  4  7  1  0  0  0  0 
  5  8  2  0  0  0  0 
  8  6  1  0  0  0  0 
  7  9  2  0  0  0  0 
  8 10  1  0  0  0  0 
 10 11  2  0  0  0  0 
 10 12  1  0  0  0  0 
M  CHG  1  10   1
M  CHG  1  12  -1
M  END
> <Name>
Benzaldehyde, 2-chloro-5-nitro-

> <Source>
DSSTox2DMolFile

> <Tox>
3.530

> <CAS>
6361-21-3

$$$$

  CDK

  7  6  0  0  0  0  0  0  0  0999 V2000
    2.5078    0.3610   -0.0299 C   0  0  0  0  0  0  0  0  0  0  0  0
    1.2066   -0.3418   -0.0200 C   0  0  0  0  0  0  0  0  0  0  0  0
    3.5445   -0.1868    0.2730 O   0  0  0  0  0  0  0  0  0  0  0  0
    0.0811    0.2873   -0.3683 C   0  0  0  0  0  0  0  0  0  0  0  0
   -1.2449   -0.3837   -0.3923 C   0  0  0  0  0  0  0  0  0  0  0  0
   -2.3127    0.4777    0.2672 C   0  0  0  0  0  0  0  0  0  0  0  0
   -3.6680   -0.1901    0.2113 C   0  0  0  0  0  0  0  0  0  0  0  0
  1  2  1  0  0  0  0 
  1  3  2  0  0  0  0 
  2  4  2  0  0  0  0 
  4  5  1  0  0  0  0 
  5  6  1  0  0  0  0 
  6  7  1  0  0  0  0 
M  END
> <Name>
2-Hexenal, (2E)-

> <Source>
DougDB3DMolFile

> <Tox>
3.770

> <CAS>
6728-26-3

$$$$

  CDK

 11 11  0  0  0  0  0  0  0  0999 V2000
    1.4974    0.0000    0.0000 O   0  0  0  0  0  0  0  0  0  0  0  0
    1.9965    0.8485    0.0000 C   0  0  0  0  0  0  0  0  0  0  0  0
    1.4974    1.7469    0.0000 C   0  0  0  0  0  0  0  0  0  0  0  0
    2.9947    0.8485    0.0000 C   0  0  0  0  0  0  0  0  0  0  0  0
    0.4991    1.7469    0.0000 C   0  0  0  0  0  0  0  0  0  0  0  0
    1.9965    2.5954    0.0000 C   0  0  0  0  0  0  0  0  0  0  0  0
    3.4938    1.7469    0.0000 C   0  0  0  0  0  0  0  0  0  0  0  0
    0.0000    0.8485    0.0000 N   0  0  0  0  0  0  0  0  0  0  0  0
    0.0000    2.5954    0.0000 O   0  0  0  0  0  0  0  0  0  0  0  0
    2.9947    2.5954    0.0000 C   0  0  0  0  0  0  0  0  0  0  0  0
    3.4938    3.4439    0.0000 Cl  0  0  0  0  0  0  0  0  0  0  0  0
  1  2  1  0  0  0  0 
  3  2  2  0  0  0  0 
  2  4  1  0  0  0  0 
  5  3  1  0  0  0  0 
  6  3  1  0  0  0  0 
  4  7  2  0  0  0  0 
  8  5  1  0  0  0  0 
  5  9  2  0  0  0  0 
 10  6  2  0  0  0  0 
  7 10  1  0  0  0  0 
 11 10  1  0  0  0  0 
M  END
> <Name>
Salicylamide,5-chloro- (6CI,7CI,8CI)

> <Source>
NIST2DMolFile

> <Tox>
3.590

> <CAS>
7120-43-6

$$$$

  CDK

 14 14  0  0  0  0  0  0  0  0999 V2000
   11.5135   -0.6678    0.0000 N   0  0  0  0  0  0  0  0  0  0  0  0
   10.3621   -0.0000    0.0000 C   0  0  0  0  0  0  0  0  0  0  0  0
    9.2108   -0.6678    0.0000 C   0  0  0  0  0  0  0  0  0  0  0  0
    8.0594   -0.0000    0.0000 C   0  0  0  0  0  0  0  0  0  0  0  0
    6.9081   -0.6678    0.0000 N   0  0  0  0  0  0  0  0  0  0  0  0
    6.9081   -1.9918    0.0000 C   0  0  0  0  0  0  0  0  0  0  0  0
    5.7567   -0.0000    0.0000 C   0  0  0  0  0  0  0  0  0  0  0  0
    5.7567   -2.6596    0.0000 C   0  0  0  0  0  0  0  0  0  0  0  0
    4.6054   -0.6678    0.0000 C   0  0  0  0  0  0  0  0  0  0  0  0
    4.6054   -1.9918    0.0000 N   0  0  0  0  0  0  0  0  0  0  0  0
    3.4540   -2.6596    0.0000 C   0  0  0  0  0  0  0  0  0  0  0  0
    2.3027   -1.9918    0.0000 C   0  0  0  0  0  0  0  0  0  0  0  0
    1.1513   -2.6596    0.0000 C   0  0  0  0  0  0  0  0  0  0  0  0
    0.0000   -1.9918    0.0000 N   0  0  0  0  0  0  0  0  0  0  0  0
  1  2  1  0  0  0  0 
  2  3  1  0  0  0  0 
  3  4  1  0  0  0  0 
  4  5  1  0  0  0  0 
  5  6  1  0  0  0  0 
  5  7  1  0  0  0  0 
  6  8  1  0  0  0  0 
  9  7  1  0  0  0  0 
  8 10  1  0  0  0  0 
 10  9  1  0  0  0  0 
 10 11  1  0  0  0  0 
 11 12  1  0  0  0  0 
 12 13  1  0  0  0  0 
 13 14  1  0  0  0  0 
M  END
> <Name>
N,N'-Bis(3-aminopropyl)piperazine

> <Source>
DSSTox2DMolFile

> <Tox>
2.340

> <CAS>
7209-38-3

$$$$

  CDK

 12 12  0  0  0  0  0  0  0  0999 V2000
   -2.1195    0.2161   -0.0004 O   0  0  0  0  0  0  0  0  0  0  0  0
   -1.1248   -0.7233   -0.0008 C   0  0  0  0  0  0  0  0  0  0  0  0
   -3.4667   -0.2682    0.0005 C   0  0  0  0  0  0  0  0  0  0  0  0
   -1.3265   -1.9449   -0.0004 O   0  0  0  0  0  0  0  0  0  0  0  0
    0.1926   -0.1073   -0.0001 C   0  0  0  0  0  0  0  0  0  0  0  0
   -4.4149    0.9120    0.0007 C   0  0  0  0  0  0  0  0  0  0  0  0
    1.3362   -0.9061    0.0005 C   0  0  0  0  0  0  0  0  0  0  0  0
    0.3126    1.2825   -0.0005 C   0  0  0  0  0  0  0  0  0  0  0  0
    2.5997   -0.3150    0.0006 C   0  0  0  0  0  0  0  0  0  0  0  0
    1.5760    1.8735   -0.0003 C   0  0  0  0  0  0  0  0  0  0  0  0
    3.7156   -1.0941    0.0001 O   0  0  0  0  0  0  0  0  0  0  0  0
    2.7195    1.0748    0.0002 C   0  0  0  0  0  0  0  0  0  0  0  0
  1  2  1  0  0  0  0 
  1  3  1  0  0  0  0 
  4  2  2  0  0  0  0 
  5  2  1  0  0  0  0 
  3  6  1  0  0  0  0 
  5  7  2  0  0  0  0 
  5  8  1  0  0  0  0 
  7  9  1  0  0  0  0 
  8 10  2  0  0  0  0 
 11  9  1  0  0  0  0 
  9 12  2  0  0  0  0 
 10 12  1  0  0  0  0 
M  END
> <Name>
ethyl 3-hydroxybenzoate

> <Source>
Chemidplus3DMolFile

> <Tox>
3.480

> <CAS>
7781-98-8

$$$$

  CDK

 15 15  0  0  0  0  0  0  0  0999 V2000
    9.3099   -1.1575    0.0000 C   0  0  0  0  0  0  0  0  0  0  0  0
    9.9785   -2.3050    0.0000 C   0  0  0  0  0  0  0  0  0  0  0  0
    7.9828   -1.1575    0.0000 C   0  0  0  0  0  0  0  0  0  0  0  0
    9.9785   -0.0000    0.0000 O   0  0  0  0  0  0  0  0  0  0  0  0
    9.3099   -3.4625    0.0000 C   0  0  0  0  0  0  0  0  0  0  0  0
    7.3142   -2.3050    0.0000 C   0  0  0  0  0  0  0  0  0  0  0  0
    7.9828   -3.4625    0.0000 C   0  0  0  0  0  0  0  0  0  0  0  0
    7.3142   -4.6101    0.0000 O   0  0  0  0  0  0  0  0  0  0  0  0
    5.9871   -4.6101    0.0000 C   0  0  0  0  0  0  0  0  0  0  0  0
    5.3185   -3.4625    0.0000 C   0  0  0  0  0  0  0  0  0  0  0  0
    3.9914   -3.4625    0.0000 C   0  0  0  0  0  0  0  0  0  0  0  0
    3.3228   -2.3050    0.0000 C   0  0  0  0  0  0  0  0  0  0  0  0
    1.9957   -2.3050    0.0000 C   0  0  0  0  0  0  0  0  0  0  0  0
    1.3271   -1.1575    0.0000 C   0  0  0  0  0  0  0  0  0  0  0  0
    0.0000   -1.1575    0.0000 C   0  0  0  0  0  0  0  0  0  0  0  0
  1  2  1  0  0  0  0 
  1  3  2  0  0  0  0 
  1  4  1  0  0  0  0 
  2  5  2  0  0  0  0 
  6  3  1  0  0  0  0 
  5  7  1  0  0  0  0 
  7  6  2  0  0  0  0 
  7  8  1  0  0  0  0 
  8  9  1  0  0  0  0 
  9 10  1  0  0  0  0 
 10 11  1  0  0  0  0 
 11 12  1  0  0  0  0 
 12 13  1  0  0  0  0 
 13 14  1  0  0  0  0 
 14 15  1  0  0  0  0 
M  END
> <Name>
4-heptoxyphenol

> <Source>
DSSTox2DMolFile

> <Tox>
5.030

> <CAS>
13037-86-0

$$$$

  CDK

  8  7  0  0  0  0  0  0  0  0999 V2000
    2.9644    1.6070    1.5099 C   0  0  0  0  0  0  0  0  0  0  0  0
    4.1315    1.5421    0.8610 C   0  0  0  0  0  0  0  0  0  0  0  0
    1.8089    0.7932    1.0942 C   0  0  0  0  0  0  0  0  0  0  0  0
    5.3060    2.3663    1.2487 C   0  0  0  0  0  0  0  0  0  0  0  0
    0.6983    0.9555    1.8544 O   0  0  0  0  0  0  0  0  0  0  0  0
    1.7047    0.0000    0.1722 O   0  0  0  0  0  0  0  0  0  0  0  0
    6.5779    1.5313    1.2816 C   0  0  0  0  0  0  0  0  0  0  0  0
    7.7775    2.3762    1.6466 C   0  0  0  0  0  0  0  0  0  0  0  0
  1  2  2  0  0  0  0 
  1  3  1  0  0  0  0 
  2  4  1  0  0  0  0 
  3  5  1  0  0  0  0 
  3  6  2  0  0  0  0 
  4  7  1  0  0  0  0 
  7  8  1  0  0  0  0 
M  END
> <Name>
2-Hexenoic acid, (2E)-

> <Source>
NIST3DMolFile

> <Tox>
2.872

> <CAS>
13419-69-7

$$$$

  CDK

  9  8  0  0  0  0  0  0  0  0999 V2000
   -0.3888   -0.0765    0.0005 O   0  0  0  0  0  0  0  0  0  0  0  0
    0.8105    0.5667    0.0006 C   0  0  0  0  0  0  0  0  0  0  0  0
   -1.5455    0.7670   -0.0002 C   0  0  0  0  0  0  0  0  0  0  0  0
    0.9738    1.7786    0.0003 O   0  0  0  0  0  0  0  0  0  0  0  0
    1.9135   -0.4344    0.0000 C   0  0  0  0  0  0  0  0  0  0  0  0
   -2.7672   -0.0383   -0.0003 C   0  0  0  0  0  0  0  0  0  0  0  0
    1.6042   -1.9002    0.0004 C   0  0  0  0  0  0  0  0  0  0  0  0
    3.1700    0.0343   -0.0010 C   0  0  0  0  0  0  0  0  0  0  0  0
   -3.7706   -0.6973   -0.0002 C   0  0  0  0  0  0  0  0  0  0  0  0
  1  2  1  0  0  0  0 
  1  3  1  0  0  0  0 
  4  2  2  0  0  0  0 
  5  2  1  0  0  0  0 
  3  6  1  0  0  0  0 
  5  7  1  0  0  0  0 
  5  8  2  0  0  0  0 
  6  9  3  0  0  0  0 
M  END
> <Name>
prop-2-ynyl 2-methylprop-2-enoate

> <Source>
Chemidplus3DMolFile

> <Tox>
2.630

> <CAS>
13861-22-8

$$$$

  CDK

 10  9  0  0  0  0  0  0  0  0999 V2000
    6.5278    0.6996    3.4873 C   0  0  0  0  0  0  0  0  0  0  0  0
    5.6596    1.2485    2.3647 C   0  0  0  0  0  0  0  0  0  0  0  0
    7.0764    1.8344    4.3348 C   0  0  0  0  0  0  0  0  0  0  0  0
    4.1900    1.3595    2.6927 C   0  0  0  0  0  0  0  0  0  0  0  0
    6.1458    1.5583    1.2952 O   0  0  0  0  0  0  0  0  0  0  0  0
    8.4300    2.3512    3.9408 C   0  0  0  0  0  0  0  0  0  0  0  0
    6.4484    2.2813    5.2750 O   0  0  0  0  0  0  0  0  0  0  0  0
    3.3479    1.9746    1.5892 C   0  0  0  0  0  0  0  0  0  0  0  0
    1.8911    2.0830    2.0121 C   0  0  0  0  0  0  0  0  0  0  0  0
    1.0500    2.7188    0.9283 C   0  0  0  0  0  0  0  0  0  0  0  0
  1  2  1  0  0  0  0 
  1  3  1  0  0  0  0 
  2  4  1  0  0  0  0 
  2  5  2  0  0  0  0 
  3  6  1  0  0  0  0 
  3  7  2  0  0  0  0 
  4  8  1  0  0  0  0 
  8  9  1  0  0  0  0 
  9 10  1  0  0  0  0 
M  END
> <Name>
Octane-2,4-dione

> <Source>
NIST3DMolFile

> <Tox>
3.130

> <CAS>
14090-87-0

$$$$

  CDK

  6  5  0  0  0  0  0  0  0  0999 V2000
    2.2701   -0.9296    0.5512 Cl  0  0  0  0  0  0  0  0  0  0  0  0
    1.4228   -0.1305   -0.7930 C   0  0  0  0  0  0  0  0  0  0  0  0
    0.6415    1.0989   -0.3314 C   0  0  0  0  0  0  0  0  0  0  0  0
   -0.4650    0.8208    0.6902 C   0  0  0  0  0  0  0  0  0  0  0  0
   -1.5075   -0.0673    0.1570 C   0  0  0  0  0  0  0  0  0  0  0  0
   -2.3620   -0.7922   -0.2740 C   0  0  0  0  0  0  0  0  0  0  0  0
  1  2  1  0  0  0  0 
  3  2  1  0  0  0  0 
  3  4  1  0  0  0  0 
  4  5  1  0  0  0  0 
  5  6  3  0  0  0  0 
M  END
> <Name>
1-Pentyne, 5-chloro-

> <Source>
Chemidplus3DMolFile

> <Tox>
2.510

> <CAS>
14267-92-6

$$$$

  CDK

  7  7  0  0  0  0  0  0  0  0999 V2000
    1.3067    3.6400    0.0000 S   0  0  0  0  0  0  0  0  0  0  0  0
    2.1467    2.4733    0.0000 C   0  0  0  0  0  0  0  0  0  0  0  0
    0.0000    3.1733    0.0000 C   0  0  0  0  0  0  0  0  0  0  0  0
    3.5467    2.4733    0.0000 Br  0  0  0  0  0  0  0  0  0  0  0  0
    1.3067    1.3533    0.0000 C   0  0  0  0  0  0  0  0  0  0  0  0
    0.0000    1.7733    0.0000 C   0  0  0  0  0  0  0  0  0  0  0  0
    1.7733    0.0000    0.0000 C   0  0  0  0  0  0  0  0  0  0  0  0
  1  2  1  0  0  0  0 
  1  3  1  0  0  0  0 
  2  4  1  0  0  0  0 
  2  5  2  0  0  0  0 
  6  3  2  0  0  0  0 
  5  7  1  0  0  0  0 
  5  6  1  0  0  0  0 
M  END
> <Name>
2-bromo-3-methylthiophene

> <Source>
IndexNet2DMolFile

> <Tox>
3.620

> <CAS>
14282-76-9

$$$$

  CDK

 10  9  0  0  0  0  0  0  0  0999 V2000
    3.4592    1.5040    0.0000 C   0  0  0  0  0  0  0  0  0  0  0  0
    2.6069    1.0027    0.0000 C   0  0  0  0  0  0  0  0  0  0  0  0
    4.3115    1.0027    0.0000 C   0  0  0  0  0  0  0  0  0  0  0  0
    1.7045    1.5040    0.0000 O   0  0  0  0  0  0  0  0  0  0  0  0
    2.6069    0.0000    0.0000 O   0  0  0  0  0  0  0  0  0  0  0  0
    5.2139    1.5040    0.0000 C   0  0  0  0  0  0  0  0  0  0  0  0
    0.8523    1.0027    0.0000 C   0  0  0  0  0  0  0  0  0  0  0  0
    6.0661    1.0027    0.0000 C   0  0  0  0  0  0  0  0  0  0  0  0
    0.0000    1.5040    0.0000 C   0  0  0  0  0  0  0  0  0  0  0  0
    6.9184    1.5040    0.0000 Br  0  0  0  0  0  0  0  0  0  0  0  0
  1  2  1  0  0  0  0 
  1  3  1  0  0  0  0 
  2  4  1  0  0  0  0 
  2  5  2  0  0  0  0 
  3  6  1  0  0  0  0 
  4  7  1  0  0  0  0 
  6  8  1  0  0  0  0 
  7  9  1  0  0  0  0 
  8 10  1  0  0  0  0 
M  END
> <Name>
Pentanoic acid, 5-bromo-, ethyl ester

> <Source>
NIST2DMolFile

> <Tox>
3.218

> <CAS>
14660-52-7

$$$$

  CDK

  7  6  0  0  0  0  0  0  0  0999 V2000
    1.2839   -2.0386   -0.1190 Br  0  0  0  0  0  0  0  0  0  0  0  0
    0.0095   -0.5936   -0.4822 C   0  0  0  0  0  0  0  0  0  0  0  0
   -1.3016   -0.9356    0.1976 C   0  0  0  0  0  0  0  0  0  0  0  0
    0.6809    0.6487    0.0741 C   0  0  0  0  0  0  0  0  0  0  0  0
   -2.5737    0.5245   -0.0446 Br  0  0  0  0  0  0  0  0  0  0  0  0
    0.9015    0.8206    1.2708 O   0  0  0  0  0  0  0  0  0  0  0  0
    0.9996    1.5740   -0.8967 N   0  0  0  0  0  0  0  0  0  0  0  0
  1  2  1  0  0  0  0 
  2  3  1  0  0  0  0 
  2  4  1  0  0  0  0 
  5  3  1  0  0  0  0 
  6  4  2  0  0  0  0 
  7  4  1  0  0  0  0 
M  END
> <Name>
2,3-dibromopropanamide

> <Source>
Chemidplus3DMolFile

> <Tox>
4.921

> <CAS>
15102-42-8

$$$$

  CDK

  5  4  0  0  0  0  0  0  0  0999 V2000
    0.8588    2.9517    1.7527 C   0  0  0  0  0  0  0  0  0  0  0  0
    1.5045    1.7934    1.0268 C   0  0  0  0  0  0  0  0  0  0  0  0
    2.7506    1.2245    1.7207 C   0  0  0  0  0  0  0  0  0  0  0  0
    2.4487    0.7114    3.1276 C   0  0  0  0  0  0  0  0  0  0  0  0
    3.7384    2.2400    1.7213 O   0  0  0  0  0  0  0  0  0  0  0  0
  1  2  1  0  0  0  0 
  2  3  1  0  0  0  0 
  3  4  1  0  0  0  0 
  3  5  1  0  0  0  0 
M  END
> <Name>
1-Methylpropyl alcohol

> <Source>
NIST3DMolFile

> <Tox>
1.458

> <CAS>
15892-23-6

$$$$

  CDK

  8  7  0  0  0  0  0  0  0  0999 V2000
    2.1000    4.8497    0.0000 C   0  0  0  0  0  0  0  0  0  0  0  0
    1.4000    3.6373    0.0000 C   0  0  0  0  0  0  0  0  0  0  0  0
    2.1000    2.4249    0.0000 C   0  0  0  0  0  0  0  0  0  0  0  0
    1.4000    1.2124    0.0000 C   0  0  0  0  0  0  0  0  0  0  0  0
    3.5000    2.4249    0.0000 Br  0  0  0  0  0  0  0  0  0  0  0  0
    2.1000    0.0000    0.0000 C   0  0  0  0  0  0  0  0  0  0  0  0
    0.0000    1.2124    0.0000 Br  0  0  0  0  0  0  0  0  0  0  0  0
    3.5000    0.0000    0.0000 C   0  0  0  0  0  0  0  0  0  0  0  0
  1  2  1  0  0  0  0 
  2  3  1  0  0  0  0 
  3  4  1  0  0  0  0 
  3  5  1  0  0  0  0 
  4  6  1  0  0  0  0 
  4  7  1  0  0  0  0 
  6  8  1  0  0  0  0 
M  END
> <Name>
Hexane,3,4-dibromo-, (R*,R*)-(??�)-

> <Source>
Name2DMolFile

> <Tox>
3.998

> <CAS>
16230-28-7

$$$$

  CDK

  8  8  0  0  0  0  0  0  0  0999 V2000
    2.3040   -2.6588    0.0000 N   0  0  0  0  0  0  0  0  0  0  0  0
    1.1520   -1.9953    0.0000 C   0  0  0  0  0  0  0  0  0  0  0  0
    3.4560   -1.9953    0.0000 C   0  0  0  0  0  0  0  0  0  0  0  0
    0.0000   -2.6588    0.0000 O   0  0  0  0  0  0  0  0  0  0  0  0
    1.1520   -0.6635    0.0000 C   0  0  0  0  0  0  0  0  0  0  0  0
    3.4560   -0.6635    0.0000 C   0  0  0  0  0  0  0  0  0  0  0  0
    4.6080   -2.6588    0.0000 Cl  0  0  0  0  0  0  0  0  0  0  0  0
    2.3040   -0.0000    0.0000 C   0  0  0  0  0  0  0  0  0  0  0  0
  1  2  2  0  0  0  0 
  1  3  1  0  0  0  0 
  2  4  1  0  0  0  0 
  2  5  1  0  0  0  0 
  6  3  2  0  0  0  0 
  3  7  1  0  0  0  0 
  5  8  2  0  0  0  0 
  8  6  1  0  0  0  0 
M  END
> <Name>
6-Chloropyridin-2-ol

> <Source>
DSSTox2DMolFile

> <Tox>
2.710

> <CAS>
16879-02-0

$$$$

  CDK

 11 10  0  0  0  0  0  0  0  0999 V2000
    0.4567   -0.4911   -0.0194 O   0  0  0  0  0  0  0  0  0  0  0  0
   -0.6831    0.3571   -0.0269 C   0  0  0  0  0  0  0  0  0  0  0  0
    1.6741    0.1407   -0.0150 C   0  0  0  0  0  0  0  0  0  0  0  0
   -1.9377   -0.5047   -0.0310 C   0  0  0  0  0  0  0  0  0  0  0  0
    1.8430    1.3526   -0.0170 O   0  0  0  0  0  0  0  0  0  0  0  0
    2.7707   -0.8958   -0.0061 C   0  0  0  0  0  0  0  0  0  0  0  0
   -3.2061    0.3457   -0.0235 C   0  0  0  0  0  0  0  0  0  0  0  0
    4.1053   -0.2862    0.0224 C   0  0  0  0  0  0  0  0  0  0  0  0
   -4.4604   -0.5268    0.0151 C   0  0  0  0  0  0  0  0  0  0  0  0
    5.1624    0.1918    0.0444 N   0  0  0  0  0  0  0  0  0  0  0  0
   -5.7247    0.3167    0.0569 C   0  0  0  0  0  0  0  0  0  0  0  0
  1  2  1  0  0  0  0 
  1  3  1  0  0  0  0 
  4  2  1  0  0  0  0 
  5  3  2  0  0  0  0 
  3  6  1  0  0  0  0 
  7  4  1  0  0  0  0 
  6  8  1  0  0  0  0 
  7  9  1  0  0  0  0 
 10  8  3  0  0  0  0 
  9 11  1  0  0  0  0 
M  END
> <Name>
pentyl 2-cyanoacetate

> <Source>
Chemidplus3DMolFile

> <Tox>
2.690

> <CAS>
17686-39-4

$$$$

  CDK

 12 12  0  0  0  0  0  0  0  0999 V2000
    5.3204   -2.3041    0.0000 N   0  0  0  0  0  0  0  0  0  0  0  0
    5.9847   -3.4532    0.0000 O   0  0  0  0  0  0  0  0  0  0  0  0
    5.9847   -1.1491    0.0000 O   0  0  0  0  0  0  0  0  0  0  0  0
    3.9918   -2.3041    0.0000 C   0  0  0  0  0  0  0  0  0  0  0  0
    3.3275   -3.4532    0.0000 C   0  0  0  0  0  0  0  0  0  0  0  0
    3.3275   -1.1491    0.0000 C   0  0  0  0  0  0  0  0  0  0  0  0
    1.9929   -3.4532    0.0000 C   0  0  0  0  0  0  0  0  0  0  0  0
    1.9929   -1.1491    0.0000 C   0  0  0  0  0  0  0  0  0  0  0  0
    3.9918   -0.0000    0.0000 Cl  0  0  0  0  0  0  0  0  0  0  0  0
    1.3286   -2.3041    0.0000 C   0  0  0  0  0  0  0  0  0  0  0  0
    1.3286   -0.0000    0.0000 Cl  0  0  0  0  0  0  0  0  0  0  0  0
    0.0000   -2.3041    0.0000 Cl  0  0  0  0  0  0  0  0  0  0  0  0
  1  2  2  0  0  0  0 
  1  3  1  0  0  0  0 
  1  4  1  0  0  0  0 
  4  5  2  0  0  0  0 
  4  6  1  0  0  0  0 
  5  7  1  0  0  0  0 
  8  6  2  0  0  0  0 
  6  9  1  0  0  0  0 
  7 10  2  0  0  0  0 
 10  8  1  0  0  0  0 
  8 11  1  0  0  0  0 
 10 12  1  0  0  0  0 
M  CHG  1   1   1
M  CHG  1   3  -1
M  END
> <Name>
Benzene, 1,2,3-trichloro-4-nitro- (8CI)(9CI)

> <Source>
DSSTox2DMolFile

> <Tox>
4.510

> <CAS>
17700-09-3

$$$$

  CDK

  9  9  0  0  0  0  0  0  0  0999 V2000
    0.8510    2.0022    0.0000 C   0  0  0  0  0  0  0  0  0  0  0  0
    1.7520    1.5017    0.0000 C   0  0  0  0  0  0  0  0  0  0  0  0
    0.0000    1.5017    0.0000 C   0  0  0  0  0  0  0  0  0  0  0  0
    1.7520    0.5006    0.0000 C   0  0  0  0  0  0  0  0  0  0  0  0
    2.6029    2.0022    0.0000 C   0  0  0  0  0  0  0  0  0  0  0  0
    0.0000    0.5006    0.0000 C   0  0  0  0  0  0  0  0  0  0  0  0
    0.8510    0.0000    0.0000 C   0  0  0  0  0  0  0  0  0  0  0  0
    2.6029    0.0000    0.0000 Cl  0  0  0  0  0  0  0  0  0  0  0  0
    3.4539    1.5017    0.0000 O   0  0  0  0  0  0  0  0  0  0  0  0
  2  1  2  0  0  0  0 
  1  3  1  0  0  0  0 
  4  2  1  0  0  0  0 
  2  5  1  0  0  0  0 
  3  6  2  0  0  0  0 
  7  4  2  0  0  0  0 
  4  8  1  0  0  0  0 
  5  9  1  0  0  0  0 
  6  7  1  0  0  0  0 
M  END
> <Name>
(2-chlorophenyl)methanol

> <Source>
NIST2DMolFile

> <Tox>
2.900

> <CAS>
17849-38-6

$$$$

  CDK

 14 13  0  0  0  0  0  0  0  0999 V2000
    1.0622    0.6342   -0.1012 C   0  0  0  0  0  0  0  0  0  0  0  0
   -0.2363   -0.1494   -0.3486 C   0  0  0  0  0  0  0  0  0  0  0  0
    0.9078    1.5858    1.0807 C   0  0  0  0  0  0  0  0  0  0  0  0
    2.0557   -0.3647    0.1852 O   0  0  0  0  0  0  0  0  0  0  0  0
   -1.3231    0.8116   -0.8281 C   0  0  0  0  0  0  0  0  0  0  0  0
    3.3700   -0.1029   -0.0723 C   0  0  0  0  0  0  0  0  0  0  0  0
   -2.5648    0.1589   -1.0402 O   0  0  0  0  0  0  0  0  0  0  0  0
    4.2416   -1.2477    0.2847 C   0  0  0  0  0  0  0  0  0  0  0  0
    3.7009    0.9694   -0.5441 O   0  0  0  0  0  0  0  0  0  0  0  0
   -3.4161   -0.0457    0.0127 C   0  0  0  0  0  0  0  0  0  0  0  0
    5.5607   -1.1974    0.1253 C   0  0  0  0  0  0  0  0  0  0  0  0
   -4.6522   -0.7512   -0.3979 C   0  0  0  0  0  0  0  0  0  0  0  0
   -3.1126    0.3527    1.1216 O   0  0  0  0  0  0  0  0  0  0  0  0
   -5.6166   -1.0343    0.4727 C   0  0  0  0  0  0  0  0  0  0  0  0
  1  2  1  0  0  0  0 
  1  3  1  0  0  0  0 
  1  4  1  0  0  0  0 
  2  5  1  0  0  0  0 
  6  4  1  0  0  0  0 
  5  7  1  0  0  0  0 
  6  8  1  0  0  0  0 
  6  9  2  0  0  0  0 
 10  7  1  0  0  0  0 
  8 11  2  0  0  0  0 
 10 12  1  0  0  0  0 
 10 13  2  0  0  0  0 
 12 14  2  0  0  0  0 
M  END
> <Name>
2-Propenoic acid, 1-methyl-1,3-propanediyl ester

> <Source>
DougDB3DMolFile

> <Tox>
4.144

> <CAS>
19485-03-1

$$$$

  CDK

 16 16  0  0  0  0  0  0  0  0999 V2000
    2.5779    2.9822    0.0000 C   0  0  0  0  0  0  0  0  0  0  0  0
    1.6680    2.5273    0.0000 C   0  0  0  0  0  0  0  0  0  0  0  0
    3.4372    2.5273    0.0000 C   0  0  0  0  0  0  0  0  0  0  0  0
    2.5779    3.9932    0.0000 Cl  0  0  0  0  0  0  0  0  0  0  0  0
    1.6680    1.5164    0.0000 C   0  0  0  0  0  0  0  0  0  0  0  0
    0.8087    2.9822    0.0000 N   0  0  0  0  0  0  0  0  0  0  0  0
    3.4372    1.5164    0.0000 C   0  0  0  0  0  0  0  0  0  0  0  0
    4.2965    2.9822    0.0000 Cl  0  0  0  0  0  0  0  0  0  0  0  0
    2.5779    1.0109    0.0000 C   0  0  0  0  0  0  0  0  0  0  0  0
    0.8087    1.0109    0.0000 Cl  0  0  0  0  0  0  0  0  0  0  0  0
    0.8087    3.9932    0.0000 O   0  0  0  0  0  0  0  0  0  0  0  0
    0.0000    2.5273    0.0000 O   0  0  0  0  0  0  0  0  0  0  0  0
    4.2965    1.0109    0.0000 N   0  0  0  0  0  0  0  0  0  0  0  0
    2.5779    0.0000    0.0000 Cl  0  0  0  0  0  0  0  0  0  0  0  0
    4.2965    0.0000    0.0000 O   0  0  0  0  0  0  0  0  0  0  0  0
    5.2063    0.5055    0.0000 O   0  0  0  0  0  0  0  0  0  0  0  0
  2  1  2  0  0  0  0 
  1  3  1  0  0  0  0 
  1  4  1  0  0  0  0 
  5  2  1  0  0  0  0 
  2  6  1  0  0  0  0 
  3  7  2  0  0  0  0 
  3  8  1  0  0  0  0 
  9  5  2  0  0  0  0 
  5 10  1  0  0  0  0 
  6 11  2  0  0  0  0 
  6 12  2  0  0  0  0 
  7  9  1  0  0  0  0 
  7 13  1  0  0  0  0 
  9 14  1  0  0  0  0 
 13 15  2  0  0  0  0 
 13 16  2  0  0  0  0 
M  END
> <Name>
Benzene, 1,2,4,5-tetrachloro-3,6-dinitro-

> <Source>
NIST2DMolFile

> <Tox>
5.820

> <CAS>
20098-38-8

$$$$

  CDK

  9  8  0  0  0  0  0  0  0  0999 V2000
    5.9663    1.9660    1.7449 C   0  0  0  0  0  0  0  0  0  0  0  0
    5.1564    3.1562    2.2460 C   0  0  0  0  0  0  0  0  0  0  0  0
    7.4385    2.1292    2.0856 C   0  0  0  0  0  0  0  0  0  0  0  0
    3.7553    3.0034    1.9553 C   0  0  0  0  0  0  0  0  0  0  0  0
    8.2540    0.9410    1.6021 C   0  0  0  0  0  0  0  0  0  0  0  0
    2.5931    2.8801    1.7209 C   0  0  0  0  0  0  0  0  0  0  0  0
    9.7092    1.0732    1.9911 C   0  0  0  0  0  0  0  0  0  0  0  0
    1.1823    2.7328    1.4373 C   0  0  0  0  0  0  0  0  0  0  0  0
    0.9371    3.2015    0.1278 O   0  0  0  0  0  0  0  0  0  0  0  0
  1  2  1  0  0  0  0 
  1  3  1  0  0  0  0 
  2  4  1  0  0  0  0 
  3  5  1  0  0  0  0 
  4  6  3  0  0  0  0 
  5  7  1  0  0  0  0 
  6  8  1  0  0  0  0 
  8  9  1  0  0  0  0 
M  END
> <Name>
2-Octyn-1-ol

> <Source>
NIST3DMolFile

> <Tox>
3.194

> <CAS>
20739-58-6

$$$$

  CDK

  9  8  0  0  0  0  0  0  0  0999 V2000
    0.0000    2.5793    0.0000 Br  0  0  0  0  0  0  0  0  0  0  0  0
    1.0115    2.5793    0.0000 C   0  0  0  0  0  0  0  0  0  0  0  0
    1.5172    1.7195    0.0000 C   0  0  0  0  0  0  0  0  0  0  0  0
    2.5287    1.7195    0.0000 C   0  0  0  0  0  0  0  0  0  0  0  0
    3.0345    0.9103    0.0000 C   0  0  0  0  0  0  0  0  0  0  0  0
    3.9954    0.9103    0.0000 C   0  0  0  0  0  0  0  0  0  0  0  0
    4.5011    0.0000    0.0000 C   0  0  0  0  0  0  0  0  0  0  0  0
    5.5126    0.0000    0.0000 C   0  0  0  0  0  0  0  0  0  0  0  0
    6.5241    0.0000    0.0000 N   0  0  0  0  0  0  0  0  0  0  0  0
  1  2  1  0  0  0  0 
  2  3  1  0  0  0  0 
  3  4  1  0  0  0  0 
  4  5  1  0  0  0  0 
  5  6  1  0  0  0  0 
  6  7  1  0  0  0  0 
  8  7  1  0  0  0  0 
  9  8  3  0  0  0  0 
M  END
> <Name>
Heptanenitrile, 7-bromo-

> <Source>
NIST2DMolFile

> <Tox>
3.512

> <CAS>
20965-27-9

$$$$

  CDK

 11 11  0  0  0  0  0  0  0  0999 V2000
    3.1766    4.6764    2.7992 C   0  0  0  0  0  0  0  0  0  0  0  0
    2.0431    5.4775    2.7143 C   0  0  0  0  0  0  0  0  0  0  0  0
    3.1751    3.4007    2.2356 C   0  0  0  0  0  0  0  0  0  0  0  0
    0.9026    5.0084    2.0716 C   0  0  0  0  0  0  0  0  0  0  0  0
    2.0297    2.9340    1.5896 C   0  0  0  0  0  0  0  0  0  0  0  0
    4.4170    2.5382    2.3249 C   0  0  0  0  0  0  0  0  0  0  0  0
    0.8964    3.7354    1.5096 C   0  0  0  0  0  0  0  0  0  0  0  0
    5.0624    2.3932    0.9353 C   0  0  0  0  0  0  0  0  0  0  0  0
    4.1140    1.2390    2.8039 O   0  0  0  0  0  0  0  0  0  0  0  0
    6.5612    2.1359    0.9858 C   0  0  0  0  0  0  0  0  0  0  0  0
    6.9054    0.7047    1.3306 C   0  0  0  0  0  0  0  0  0  0  0  0
  2  1  2  0  0  0  0 
  1  3  1  0  0  0  0 
  4  2  1  0  0  0  0 
  3  5  2  0  0  0  0 
  3  6  1  0  0  0  0 
  7  4  2  0  0  0  0 
  5  7  1  0  0  0  0 
  6  8  1  0  0  0  0 
  6  9  1  0  0  0  0 
 10  8  1  0  0  0  0 
 11 10  1  0  0  0  0 
M  END
> <Name>
1-phenyl-1-butanol

> <Source>
NIST3DMolFile

> <Tox>
2.990

> <CAS>
22144-60-1

$$$$

  CDK

 13 13  0  0  0  0  0  0  0  0999 V2000
    4.2936    0.1461   -8.1665 S   0  0  0  0  0  0  0  0  0  0  0  0
    3.5471    1.5370   -7.9438 C   0  0  0  0  0  0  0  0  0  0  0  0
    3.0038    2.5744   -7.7963 N   0  0  0  0  0  0  0  0  0  0  0  0
    2.2005    2.6200   -6.6524 C   0  0  0  0  0  0  0  0  0  0  0  0
    2.7402    3.0435   -5.4379 C   0  0  0  0  0  0  0  0  0  0  0  0
    0.8594    2.2432   -6.7261 C   0  0  0  0  0  0  0  0  0  0  0  0
    1.9388    3.0902   -4.2972 C   0  0  0  0  0  0  0  0  0  0  0  0
    0.0580    2.2902   -5.5854 C   0  0  0  0  0  0  0  0  0  0  0  0
    0.6069    2.7132   -4.3840 C   0  0  0  0  0  0  0  0  0  0  0  0
   -0.2597    2.7626   -3.1517 C   0  0  0  0  0  0  0  0  0  0  0  0
   -0.2245    1.4406   -2.3818 C   0  0  0  0  0  0  0  0  0  0  0  0
   -1.1345    1.4900   -1.1546 C   0  0  0  0  0  0  0  0  0  0  0  0
   -1.1355    0.1657   -0.4077 C   0  0  0  0  0  0  0  0  0  0  0  0
  1  2  2  0  0  0  0 
  3  2  2  0  0  0  0 
  3  4  1  0  0  0  0 
  5  4  2  0  0  0  0 
  6  4  1  0  0  0  0 
  7  5  1  0  0  0  0 
  8  6  2  0  0  0  0 
  9  7  2  0  0  0  0 
  9  8  1  0  0  0  0 
 10  9  1  0  0  0  0 
 11 10  1  0  0  0  0 
 11 12  1  0  0  0  0 
 12 13  1  0  0  0  0 
M  END
> <Name>
4-Butylphenyl isothiocyanate

> <Source>
Chemidplus3DMolFile

> <Tox>
5.770

> <CAS>
23165-44-8

$$$$

  CDK

 14 13  0  0  0  0  0  0  0  0999 V2000
    2.8579   -0.6188    0.0000 N   0  0  0  0  0  0  0  0  0  0  0  0
    3.5724   -0.2062    0.0000 C   0  0  0  0  0  0  0  0  0  0  0  0
    2.1434   -0.2062    0.0000 C   0  0  0  0  0  0  0  0  0  0  0  0
    3.5724    0.6188    0.0000 S   0  0  0  0  0  0  0  0  0  0  0  0
    4.2868   -0.6188    0.0000 N   0  0  0  0  0  0  0  0  0  0  0  0
    1.4289   -0.6188    0.0000 C   0  0  0  0  0  0  0  0  0  0  0  0
    0.7145   -0.2062    0.0000 C   0  0  0  0  0  0  0  0  0  0  0  0
    0.0000   -0.6188    0.0000 C   0  0  0  0  0  0  0  0  0  0  0  0
   -0.7145   -0.2062    0.0000 C   0  0  0  0  0  0  0  0  0  0  0  0
   -1.4289   -0.6188    0.0000 C   0  0  0  0  0  0  0  0  0  0  0  0
   -2.1434   -0.2062    0.0000 C   0  0  0  0  0  0  0  0  0  0  0  0
   -2.8579   -0.6188    0.0000 C   0  0  0  0  0  0  0  0  0  0  0  0
   -3.5724   -0.2062    0.0000 C   0  0  0  0  0  0  0  0  0  0  0  0
   -4.2868   -0.6188    0.0000 C   0  0  0  0  0  0  0  0  0  0  0  0
  1  2  1  0  0  0  0 
  1  3  1  0  0  0  0 
  2  4  2  0  0  0  0 
  2  5  1  0  0  0  0 
  3  6  1  0  0  0  0 
  6  7  1  0  0  0  0 
  7  8  1  0  0  0  0 
  8  9  1  0  0  0  0 
  9 10  1  0  0  0  0 
 10 11  1  0  0  0  0 
 11 12  1  0  0  0  0 
 12 13  1  0  0  0  0 
 13 14  1  0  0  0  0 
M  END
> <Name>
Urea,1-decyl-2-thio- (7CI,8CI)

> <Source>
Name2DMolFile

> <Tox>
4.940

> <CAS>
24827-74-5

$$$$

  CDK

  9  9  0  0  0  0  0  0  0  0999 V2000
   -2.3718   -0.7533    0.0001 F   0  0  0  0  0  0  0  0  0  0  0  0
   -1.2080   -0.0887    0.0002 C   0  0  0  0  0  0  0  0  0  0  0  0
    0.0001   -0.7862    0.0002 C   0  0  0  0  0  0  0  0  0  0  0  0
   -1.2081    1.3062    0.0000 C   0  0  0  0  0  0  0  0  0  0  0  0
    0.0006   -2.1472   -0.0004 O   0  0  0  0  0  0  0  0  0  0  0  0
    1.2080   -0.0885    0.0000 C   0  0  0  0  0  0  0  0  0  0  0  0
   -0.0003    2.0038   -0.0001 C   0  0  0  0  0  0  0  0  0  0  0  0
    2.3717   -0.7526    0.0003 F   0  0  0  0  0  0  0  0  0  0  0  0
    1.2077    1.3065   -0.0002 C   0  0  0  0  0  0  0  0  0  0  0  0
  1  2  1  0  0  0  0 
  3  2  2  0  0  0  0 
  2  4  1  0  0  0  0 
  5  3  1  0  0  0  0 
  3  6  1  0  0  0  0 
  4  7  2  0  0  0  0 
  8  6  1  0  0  0  0 
  6  9  2  0  0  0  0 
  9  7  1  0  0  0  0 
M  END
> <Name>
2,6-difluorophenol

> <Source>
Chemidplus3DMolFile

> <Tox>
3.470

> <CAS>
28177-48-2

$$$$

  CDK

 11 11  0  0  0  0  0  0  0  0999 V2000
    2.4936    0.8651    0.0000 C   0  0  0  0  0  0  0  0  0  0  0  0
    1.5267    0.8651    0.0000 C   0  0  0  0  0  0  0  0  0  0  0  0
    3.0025    1.6794    0.0000 C   0  0  0  0  0  0  0  0  0  0  0  0
    0.9669    1.6794    0.0000 C   0  0  0  0  0  0  0  0  0  0  0  0
    2.4936    2.5954    0.0000 C   0  0  0  0  0  0  0  0  0  0  0  0
    4.0203    1.6794    0.0000 C   0  0  0  0  0  0  0  0  0  0  0  0
    1.5267    2.5954    0.0000 C   0  0  0  0  0  0  0  0  0  0  0  0
    0.0000    1.6794    0.0000 N   0  0  0  0  0  0  0  0  0  0  0  0
    4.5292    2.5954    0.0000 C   0  0  0  0  0  0  0  0  0  0  0  0
    4.5292    0.8651    0.0000 C   0  0  0  0  0  0  0  0  0  0  0  0
    4.0203    0.0000    0.0000 C   0  0  0  0  0  0  0  0  0  0  0  0
  2  1  2  0  0  0  0 
  1  3  1  0  0  0  0 
  4  2  1  0  0  0  0 
  3  5  2  0  0  0  0 
  3  6  1  0  0  0  0 
  7  4  2  0  0  0  0 
  4  8  1  0  0  0  0 
  5  7  1  0  0  0  0 
  6  9  1  0  0  0  0 
  6 10  1  0  0  0  0 
 10 11  1  0  0  0  0 
M  END
> <Name>
Benzenamine, 4-(1-methylpropyl)-

> <Source>
NIST2DMolFile

> <Tox>
3.610

> <CAS>
30273-11-1

$$$$

  CDK

  9  9  0  0  0  0  0  0  0  0999 V2000
    0.0000    2.2434    0.0000 S   0  0  0  0  0  0  0  0  0  0  0  0
    0.0000    1.2747    0.0000 C   0  0  0  0  0  0  0  0  0  0  0  0
    0.9687    2.5493    0.0000 C   0  0  0  0  0  0  0  0  0  0  0  0
    0.9687    0.9687    0.0000 C   0  0  0  0  0  0  0  0  0  0  0  0
    1.5806    1.7335    0.0000 C   0  0  0  0  0  0  0  0  0  0  0  0
    2.5493    1.7335    0.0000 C   0  0  0  0  0  0  0  0  0  0  0  0
    3.0592    0.9178    0.0000 C   0  0  0  0  0  0  0  0  0  0  0  0
    4.0789    0.9178    0.0000 C   0  0  0  0  0  0  0  0  0  0  0  0
    4.5888    0.0000    0.0000 C   0  0  0  0  0  0  0  0  0  0  0  0
  2  1  1  0  0  0  0 
  1  3  1  0  0  0  0 
  4  2  2  0  0  0  0 
  3  5  2  0  0  0  0 
  5  4  1  0  0  0  0 
  5  6  1  0  0  0  0 
  6  7  1  0  0  0  0 
  8  7  1  0  0  0  0 
  8  9  1  0  0  0  0 
M  END
> <Name>
3-n-Butylthiophene

> <Source>
NIST2DMolFile

> <Tox>
3.960

> <CAS>
34722-01-5

$$$$

  CDK

  8  7  0  0  0  0  0  0  0  0999 V2000
    3.8194   -0.0122   -0.0419 Br  0  0  0  0  0  0  0  0  0  0  0  0
    2.0960   -0.8994    0.0202 C   0  0  0  0  0  0  0  0  0  0  0  0
    0.9994    0.1286    0.0151 C   0  0  0  0  0  0  0  0  0  0  0  0
   -0.2090   -0.5244    0.0089 O   0  0  0  0  0  0  0  0  0  0  0  0
    1.1395    1.3433    0.0172 O   0  0  0  0  0  0  0  0  0  0  0  0
   -1.3636    0.3036    0.0046 C   0  0  0  0  0  0  0  0  0  0  0  0
   -2.6019   -0.5794   -0.0021 C   0  0  0  0  0  0  0  0  0  0  0  0
   -3.8798    0.2399   -0.0220 C   0  0  0  0  0  0  0  0  0  0  0  0
  1  2  1  0  0  0  0 
  3  2  1  0  0  0  0 
  4  3  1  0  0  0  0 
  5  3  2  0  0  0  0 
  4  6  1  0  0  0  0 
  7  6  1  0  0  0  0 
  7  8  1  0  0  0  0 
M  END
> <Name>
propyl 2-bromoacetate

> <Source>
Chemidplus3DMolFile

> <Tox>
5.310

> <CAS>
35223-80-4

$$$$

  CDK

 12 12  0  0  0  0  0  0  0  0999 V2000
    0.7955   -2.4523    0.0004 Cl  0  0  0  0  0  0  0  0  0  0  0  0
    0.1757   -0.8454    0.0005 C   0  0  0  0  0  0  0  0  0  0  0  0
   -1.1752   -0.7942    0.0000 N   0  0  0  0  0  0  0  0  0  0  0  0
    0.9943    0.2725    0.0006 C   0  0  0  0  0  0  0  0  0  0  0  0
   -1.7294    0.4389    0.0001 C   0  0  0  0  0  0  0  0  0  0  0  0
    2.4119    0.1821   -0.0004 N   0  0  0  0  0  0  0  0  0  0  0  0
    0.3874    1.5234    0.0008 C   0  0  0  0  0  0  0  0  0  0  0  0
   -3.0981    0.5047   -0.0004 O   0  0  0  0  0  0  0  0  0  0  0  0
   -1.0000    1.6169    0.0006 C   0  0  0  0  0  0  0  0  0  0  0  0
    3.0881    1.2389   -0.0011 O   0  0  0  0  0  0  0  0  0  0  0  0
    2.9484   -0.9519   -0.0002 O   0  0  0  0  0  0  0  0  0  0  0  0
   -3.7986   -0.7335   -0.0008 C   0  0  0  0  0  0  0  0  0  0  0  0
  1  2  1  0  0  0  0 
  3  2  1  0  0  0  0 
  4  2  2  0  0  0  0 
  3  5  2  0  0  0  0 
  6  4  1  0  0  0  0 
  4  7  1  0  0  0  0 
  8  5  1  0  0  0  0 
  5  9  1  0  0  0  0 
 10  6  1  0  0  0  0 
 11  6  2  0  0  0  0 
  7  9  2  0  0  0  0 
  8 12  1  0  0  0  0 
M  CHG  1   6   1
M  CHG  1  10  -1
M  END
> <Name>
2-chloro-6-methoxy-3-nitropyridine

> <Source>
Chemidplus3DMolFile

> <Tox>
4.360

> <CAS>
38533-61-8

$$$$

  CDK

 10  9  0  0  0  0  0  0  0  0999 V2000
    0.0000    0.9232    0.0000 C   0  0  0  0  0  0  0  0  0  0  0  0
    0.8719    1.4360    0.0000 C   0  0  0  0  0  0  0  0  0  0  0  0
    1.7438    0.9232    0.0000 C   0  0  0  0  0  0  0  0  0  0  0  0
    0.8719    2.4618    0.0000 Br  0  0  0  0  0  0  0  0  0  0  0  0
    2.6669    1.4360    0.0000 C   0  0  0  0  0  0  0  0  0  0  0  0
    1.7438    0.0000    0.0000 O   0  0  0  0  0  0  0  0  0  0  0  0
    3.5388    0.9232    0.0000 C   0  0  0  0  0  0  0  0  0  0  0  0
    2.6669    2.4618    0.0000 O   0  0  0  0  0  0  0  0  0  0  0  0
    4.4107    1.4360    0.0000 C   0  0  0  0  0  0  0  0  0  0  0  0
    3.5388    0.0000    0.0000 Br  0  0  0  0  0  0  0  0  0  0  0  0
  1  2  1  0  0  0  0 
  2  3  1  0  0  0  0 
  2  4  1  0  0  0  0 
  3  5  1  0  0  0  0 
  3  6  2  0  0  0  0 
  5  7  1  0  0  0  0 
  5  8  2  0  0  0  0 
  7  9  1  0  0  0  0 
  7 10  1  0  0  0  0 
M  END
> <Name>
3,4-Hexanedione, 2,5-dibromo-

> <Source>
NIST2DMolFile

> <Tox>
5.168

> <CAS>
39081-91-9

$$$$

  CDK

 11 11  0  0  0  0  0  0  0  0999 V2000
    2.6988    1.5786    0.0000 C   0  0  0  0  0  0  0  0  0  0  0  0
    2.6988    2.5970    0.0000 C   0  0  0  0  0  0  0  0  0  0  0  0
    1.8332    1.0184    0.0000 C   0  0  0  0  0  0  0  0  0  0  0  0
    1.7823    3.2081    0.0000 C   0  0  0  0  0  0  0  0  0  0  0  0
    3.6154    3.1571    0.0000 N   0  0  0  0  0  0  0  0  0  0  0  0
    0.9166    1.5786    0.0000 C   0  0  0  0  0  0  0  0  0  0  0  0
    1.8332    0.0000    0.0000 C   0  0  0  0  0  0  0  0  0  0  0  0
    0.9166    2.6479    0.0000 C   0  0  0  0  0  0  0  0  0  0  0  0
    4.4302    3.1571    0.0000 C   0  0  0  0  0  0  0  0  0  0  0  0
    0.0000    3.0553    0.0000 C   0  0  0  0  0  0  0  0  0  0  0  0
    5.1940    3.1571    0.0000 S   0  0  0  0  0  0  0  0  0  0  0  0
  2  1  2  0  0  0  0 
  1  3  1  0  0  0  0 
  4  2  1  0  0  0  0 
  2  5  1  0  0  0  0 
  3  6  2  0  0  0  0 
  3  7  1  0  0  0  0 
  8  4  2  0  0  0  0 
  5  9  2  0  0  0  0 
  6  8  1  0  0  0  0 
  8 10  1  0  0  0  0 
  9 11  2  0  0  0  0 
M  END
> <Name>
3,5-Dimethylphenyl isothiocyanate

> <Source>
NIST2DMolFile

> <Tox>
4.886

> <CAS>
40046-30-8

$$$$

  CDK

 10  9  0  0  0  0  0  0  0  0999 V2000
    3.4990    0.0000    0.0000 C   0  0  0  0  0  0  0  0  0  0  0  0
    4.4252    0.4631    0.0000 C   0  0  0  0  0  0  0  0  0  0  0  0
    2.6242    0.4631    0.0000 C   0  0  0  0  0  0  0  0  0  0  0  0
    5.2999    0.0000    0.0000 C   0  0  0  0  0  0  0  0  0  0  0  0
    1.6980    0.0000    0.0000 C   0  0  0  0  0  0  0  0  0  0  0  0
    6.1747    0.4631    0.0000 C   0  0  0  0  0  0  0  0  0  0  0  0
    0.8747    0.4631    0.0000 C   0  0  0  0  0  0  0  0  0  0  0  0
    7.1009    0.0000    0.0000 C   0  0  0  0  0  0  0  0  0  0  0  0
    0.0000    0.0000    0.0000 Br  0  0  0  0  0  0  0  0  0  0  0  0
    7.9756    0.4631    0.0000 O   0  0  0  0  0  0  0  0  0  0  0  0
  1  2  1  0  0  0  0 
  1  3  1  0  0  0  0 
  2  4  1  0  0  0  0 
  3  5  1  0  0  0  0 
  4  6  1  0  0  0  0 
  7  5  1  0  0  0  0 
  6  8  1  0  0  0  0 
  9  7  1  0  0  0  0 
  8 10  1  0  0  0  0 
M  END
> <Name>
1-Octanol, 8-bromo-

> <Source>
NIST2DMolFile

> <Tox>
4.042

> <CAS>
50816-19-8

$$$$

  CDK

 14 13  0  0  0  0  0  0  0  0999 V2000
   13.3000    1.2133    0.0000 C   0  0  0  0  0  0  0  0  0  0  0  0
   14.0000    0.0000    0.0000 O   0  0  0  0  0  0  0  0  0  0  0  0
   11.9000    1.2133    0.0000 C   0  0  0  0  0  0  0  0  0  0  0  0
   10.5000    1.2133    0.0000 C   0  0  0  0  0  0  0  0  0  0  0  0
    9.1000    1.2133    0.0000 C   0  0  0  0  0  0  0  0  0  0  0  0
    8.4000    2.4267    0.0000 C   0  0  0  0  0  0  0  0  0  0  0  0
    7.0000    2.4267    0.0000 C   0  0  0  0  0  0  0  0  0  0  0  0
    6.3000    3.6400    0.0000 C   0  0  0  0  0  0  0  0  0  0  0  0
    4.9000    3.6400    0.0000 C   0  0  0  0  0  0  0  0  0  0  0  0
    4.2000    4.8533    0.0000 C   0  0  0  0  0  0  0  0  0  0  0  0
    2.8000    4.8533    0.0000 C   0  0  0  0  0  0  0  0  0  0  0  0
    2.1000    6.0667    0.0000 C   0  0  0  0  0  0  0  0  0  0  0  0
    0.7000    6.0667    0.0000 C   0  0  0  0  0  0  0  0  0  0  0  0
    0.0000    7.2800    0.0000 C   0  0  0  0  0  0  0  0  0  0  0  0
  1  2  1  0  0  0  0 
  1  3  1  0  0  0  0 
  3  4  3  0  0  0  0 
  4  5  1  0  0  0  0 
  5  6  1  0  0  0  0 
  6  7  1  0  0  0  0 
  7  8  1  0  0  0  0 
  8  9  1  0  0  0  0 
  9 10  1  0  0  0  0 
 10 11  1  0  0  0  0 
 11 12  1  0  0  0  0 
 12 13  1  0  0  0  0 
 13 14  1  0  0  0  0 
M  END
> <Name>
TIMTEC-BB SBB009040

> <Source>
IndexNet2DMolFile

> <Tox>
5.367

> <CAS>
51887-25-3

$$$$

  CDK

 16 16  0  0  0  0  0  0  0  0999 V2000
    3.5049    2.4890    0.0000 C   0  0  0  0  0  0  0  0  0  0  0  0
    2.6413    2.9969    0.0000 C   0  0  0  0  0  0  0  0  0  0  0  0
    3.5049    1.4731    0.0000 C   0  0  0  0  0  0  0  0  0  0  0  0
    1.7270    2.4890    0.0000 C   0  0  0  0  0  0  0  0  0  0  0  0
    2.6413    4.0128    0.0000 C   0  0  0  0  0  0  0  0  0  0  0  0
    2.6413    0.9651    0.0000 C   0  0  0  0  0  0  0  0  0  0  0  0
    4.3684    0.9651    0.0000 N   0  0  0  0  0  0  0  0  0  0  0  0
    1.7270    1.4731    0.0000 C   0  0  0  0  0  0  0  0  0  0  0  0
    1.7778    4.5208    0.0000 N   0  0  0  0  0  0  0  0  0  0  0  0
    3.5049    4.5208    0.0000 O   0  0  0  0  0  0  0  0  0  0  0  0
    2.6413    0.0000    0.0000 N   0  0  0  0  0  0  0  0  0  0  0  0
    4.3684    0.0000    0.0000 O   0  0  0  0  0  0  0  0  0  0  0  0
    5.2319    1.4223    0.0000 O   0  0  0  0  0  0  0  0  0  0  0  0
    0.8635    0.9651    0.0000 N   0  0  0  0  0  0  0  0  0  0  0  0
    0.0000    1.4223    0.0000 O   0  0  0  0  0  0  0  0  0  0  0  0
    0.8635    0.0000    0.0000 O   0  0  0  0  0  0  0  0  0  0  0  0
  2  1  2  0  0  0  0 
  1  3  1  0  0  0  0 
  4  2  1  0  0  0  0 
  2  5  1  0  0  0  0 
  3  6  2  0  0  0  0 
  3  7  1  0  0  0  0 
  8  4  2  0  0  0  0 
  5  9  1  0  0  0  0 
  5 10  2  0  0  0  0 
  6  8  1  0  0  0  0 
  6 11  1  0  0  0  0 
  7 12  2  0  0  0  0 
  7 13  2  0  0  0  0 
  8 14  1  0  0  0  0 
 14 15  2  0  0  0  0 
 14 16  2  0  0  0  0 
M  END
> <Name>
4-Amino-3,5-dinitrobenzamide

> <Source>
NIST2DMolFile

> <Tox>
3.510

> <CAS>
54321-79-8

$$$$

  CDK

 10  9  0  0  0  0  0  0  0  0999 V2000
    3.9988    0.0000    0.0000 C   0  0  0  0  0  0  0  0  0  0  0  0
    3.4989    0.8664    0.0000 C   0  0  0  0  0  0  0  0  0  0  0  0
    2.4993    0.8664    0.0000 C   0  0  0  0  0  0  0  0  0  0  0  0
    1.4995    0.8664    0.0000 C   0  0  0  0  0  0  0  0  0  0  0  0
    0.4998    0.8664    0.0000 C   0  0  0  0  0  0  0  0  0  0  0  0
    0.0000    0.0000    0.0000 O   0  0  0  0  0  0  0  0  0  0  0  0
    0.0000    1.7328    0.0000 C   0  0  0  0  0  0  0  0  0  0  0  0
    0.4998    2.5992    0.0000 C   0  0  0  0  0  0  0  0  0  0  0  0
    0.0000    3.4656    0.0000 C   0  0  0  0  0  0  0  0  0  0  0  0
    1.4995    2.5992    0.0000 C   0  0  0  0  0  0  0  0  0  0  0  0
  1  2  1  0  0  0  0 
  2  3  1  0  0  0  0 
  3  4  3  0  0  0  0 
  4  5  1  0  0  0  0 
  5  6  1  0  0  0  0 
  5  7  1  0  0  0  0 
  7  8  1  0  0  0  0 
  8  9  1  0  0  0  0 
  8 10  1  0  0  0  0 
M  END
> <Name>
2-Methyl-5-octyn-4-ol

> <Source>
NIST2DMolFile

> <Tox>
3.401

> <CAS>
60657-70-7

$$$$

  CDK

  8  7  0  0  0  0  0  0  0  0999 V2000
    0.0000    1.4764    0.0000 C   0  0  0  0  0  0  0  0  0  0  0  0
    0.9164    0.9673    0.0000 C   0  0  0  0  0  0  0  0  0  0  0  0
    1.7819    1.4764    0.0000 C   0  0  0  0  0  0  0  0  0  0  0  0
    0.9164    0.0000    0.0000 C   0  0  0  0  0  0  0  0  0  0  0  0
    2.5964    0.9673    0.0000 C   0  0  0  0  0  0  0  0  0  0  0  0
    3.4619    1.4764    0.0000 C   0  0  0  0  0  0  0  0  0  0  0  0
    2.5964    0.0000    0.0000 O   0  0  0  0  0  0  0  0  0  0  0  0
    4.3783    1.9855    0.0000 C   0  0  0  0  0  0  0  0  0  0  0  0
  1  2  1  0  0  0  0 
  2  3  1  0  0  0  0 
  2  4  1  0  0  0  0 
  3  5  1  0  0  0  0 
  5  6  1  0  0  0  0 
  5  7  1  0  0  0  0 
  6  8  3  0  0  0  0 
M  END
> <Name>
5-Methyl-1-hexyn-3-ol

> <Source>
NIST2DMolFile

> <Tox>
3.617

> <CAS>
61996-79-0

$$$$

  CDK

 17 18  0  0  0  0  0  0  0  0999 V2000
    3.4535   -2.6615    0.0000 C   0  0  0  0  0  0  0  0  0  0  0  0
    2.3023   -1.9984    0.0000 C   0  0  0  0  0  0  0  0  0  0  0  0
    4.6047   -1.9984    0.0000 N   0  0  0  0  0  0  0  0  0  0  0  0
    2.3023   -0.6631    0.0000 C   0  0  0  0  0  0  0  0  0  0  0  0
    1.1512   -2.6615    0.0000 S   0  0  0  0  0  0  0  0  0  0  0  0
    4.6047   -0.6631    0.0000 C   0  0  0  0  0  0  0  0  0  0  0  0
    5.7558   -2.6615    0.0000 C   0  0  0  0  0  0  0  0  0  0  0  0
    3.4535   -0.0000    0.0000 C   0  0  0  0  0  0  0  0  0  0  0  0
    1.8142   -3.8127    0.0000 O   0  0  0  0  0  0  0  0  0  0  0  0
    0.4881   -1.5103    0.0000 O   0  0  0  0  0  0  0  0  0  0  0  0
    0.0000   -3.3246    0.0000 O   0  0  0  0  0  0  0  0  0  0  0  0
    6.9070   -1.9984    0.0000 C   0  0  0  0  0  0  0  0  0  0  0  0
    6.9070   -0.6631    0.0000 C   0  0  0  0  0  0  0  0  0  0  0  0
    8.0581   -2.6615    0.0000 C   0  0  0  0  0  0  0  0  0  0  0  0
    8.0581   -0.0000    0.0000 C   0  0  0  0  0  0  0  0  0  0  0  0
    9.2093   -1.9984    0.0000 C   0  0  0  0  0  0  0  0  0  0  0  0
    9.2093   -0.6631    0.0000 C   0  0  0  0  0  0  0  0  0  0  0  0
  1  2  1  0  0  0  0 
  1  3  2  0  0  0  0 
  2  4  2  0  0  0  0 
  2  5  1  0  0  0  0 
  6  3  1  0  0  0  0 
  3  7  1  0  0  0  0 
  4  8  1  0  0  0  0 
  5  9  2  0  0  0  0 
  5 10  2  0  0  0  0 
  5 11  1  0  0  0  0 
  8  6  2  0  0  0  0 
  7 12  1  0  0  0  0 
 12 13  1  0  0  0  0 
 12 14  2  0  0  0  0 
 13 15  2  0  0  0  0 
 16 14  1  0  0  0  0 
 15 17  1  0  0  0  0 
 17 16  2  0  0  0  0 
M  CHG  1   3   1
M  CHG  1  11  -1
M  END
> <Name>
1-(Benzyl)-3-sulphonatopyridinium

> <Source>
DSSTox2DMolFile

> <Tox>
1.500

> <CAS>
69723-94-0

$$$$

  CDK

 13 13  0  0  0  0  0  0  0  0999 V2000
    2.9832    0.8596    0.0000 C   0  0  0  0  0  0  0  0  0  0  0  0
    1.9720    0.8596    0.0000 C   0  0  0  0  0  0  0  0  0  0  0  0
    3.4383    1.7697    0.0000 C   0  0  0  0  0  0  0  0  0  0  0  0
    1.5169    1.7697    0.0000 C   0  0  0  0  0  0  0  0  0  0  0  0
    1.4663    0.0000    0.0000 F   0  0  0  0  0  0  0  0  0  0  0  0
    2.9832    2.5787    0.0000 C   0  0  0  0  0  0  0  0  0  0  0  0
    4.4496    1.7697    0.0000 Br  0  0  0  0  0  0  0  0  0  0  0  0
    2.0225    2.5787    0.0000 C   0  0  0  0  0  0  0  0  0  0  0  0
    0.5056    1.7697    0.0000 O   0  0  0  0  0  0  0  0  0  0  0  0
    1.5169    3.4889    0.0000 N   0  0  0  0  0  0  0  0  0  0  0  0
    0.0000    0.8596    0.0000 C   0  0  0  0  0  0  0  0  0  0  0  0
    0.5056    3.4889    0.0000 O   0  0  0  0  0  0  0  0  0  0  0  0
    2.0225    4.3484    0.0000 O   0  0  0  0  0  0  0  0  0  0  0  0
  2  1  2  0  0  0  0 
  1  3  1  0  0  0  0 
  4  2  1  0  0  0  0 
  2  5  1  0  0  0  0 
  3  6  2  0  0  0  0 
  3  7  1  0  0  0  0 
  8  4  2  0  0  0  0 
  4  9  1  0  0  0  0 
  6  8  1  0  0  0  0 
  8 10  1  0  0  0  0 
  9 11  1  0  0  0  0 
 10 12  2  0  0  0  0 
 10 13  2  0  0  0  0 
M  END
> <Name>
4-Bromo-2-fluoro-6-nitrophenyl methyl ether

> <Source>
NIST2DMolFile

> <Tox>
3.970

> <CAS>
74266-66-3

$$$$

  CDK

 12 11  0  0  0  0  0  0  0  0999 V2000
    0.8536    0.1506    0.0000 C   0  0  0  0  0  0  0  0  0  0  0  0
    1.7574    0.6527    0.0000 C   0  0  0  0  0  0  0  0  0  0  0  0
    0.0000    0.6527    0.0000 C   0  0  0  0  0  0  0  0  0  0  0  0
    2.6109    0.1506    0.0000 C   0  0  0  0  0  0  0  0  0  0  0  0
    0.0000    1.6569    0.0000 O   0  0  0  0  0  0  0  0  0  0  0  0
    3.4645    0.6025    0.0000 C   0  0  0  0  0  0  0  0  0  0  0  0
    4.3683    0.1004    0.0000 C   0  0  0  0  0  0  0  0  0  0  0  0
    5.2219    0.6025    0.0000 C   0  0  0  0  0  0  0  0  0  0  0  0
    6.0252    0.0502    0.0000 C   0  0  0  0  0  0  0  0  0  0  0  0
    6.9290    0.5523    0.0000 C   0  0  0  0  0  0  0  0  0  0  0  0
    7.7826    0.0000    0.0000 C   0  0  0  0  0  0  0  0  0  0  0  0
    8.6362    0.4519    0.0000 C   0  0  0  0  0  0  0  0  0  0  0  0
  1  2  2  0  0  0  0 
  1  3  1  0  0  0  0 
  2  4  1  0  0  0  0 
  3  5  1  0  0  0  0 
  4  6  1  0  0  0  0 
  6  7  1  0  0  0  0 
  7  8  1  0  0  0  0 
  8  9  1  0  0  0  0 
  9 10  1  0  0  0  0 
 10 11  1  0  0  0  0 
 11 12  1  0  0  0  0 
M  END
> <Name>
2-Undecen-1-ol, (E)-

> <Source>
NIST2DMolFile

> <Tox>
4.611

> <CAS>
75039-84-8

$$$$

  CDK

 12 12  0  0  0  0  0  0  0  0999 V2000
    2.5623    1.4861    0.0000 C   0  0  0  0  0  0  0  0  0  0  0  0
    2.5623    2.4598    0.0000 C   0  0  0  0  0  0  0  0  0  0  0  0
    1.7423    0.9224    0.0000 C   0  0  0  0  0  0  0  0  0  0  0  0
    1.7423    3.0747    0.0000 C   0  0  0  0  0  0  0  0  0  0  0  0
    3.4334    3.0235    0.0000 N   0  0  0  0  0  0  0  0  0  0  0  0
    0.8712    1.4861    0.0000 C   0  0  0  0  0  0  0  0  0  0  0  0
    1.7423    0.0000    0.0000 F   0  0  0  0  0  0  0  0  0  0  0  0
    0.8712    2.4598    0.0000 C   0  0  0  0  0  0  0  0  0  0  0  0
    1.7423    4.0484    0.0000 N   0  0  0  0  0  0  0  0  0  0  0  0
    4.3046    2.5110    0.0000 O   0  0  0  0  0  0  0  0  0  0  0  0
    3.4334    3.9971    0.0000 O   0  0  0  0  0  0  0  0  0  0  0  0
    0.0000    0.9737    0.0000 F   0  0  0  0  0  0  0  0  0  0  0  0
  2  1  2  0  0  0  0 
  1  3  1  0  0  0  0 
  4  2  1  0  0  0  0 
  2  5  1  0  0  0  0 
  3  6  2  0  0  0  0 
  3  7  1  0  0  0  0 
  8  4  2  0  0  0  0 
  4  9  1  0  0  0  0 
  5 10  2  0  0  0  0 
  5 11  2  0  0  0  0 
  6  8  1  0  0  0  0 
  6 12  1  0  0  0  0 
M  END
> <Name>
Benzenamine, 4,5-difluoro-2-nitro-

> <Source>
NIST2DMolFile

> <Tox>
3.750

> <CAS>
78056-39-0

$$$$

  CDK

 14 14  0  0  0  0  0  0  0  0999 V2000
    3.0079    1.7843    0.0000 C   0  0  0  0  0  0  0  0  0  0  0  0
    2.0392    1.7843    0.0000 C   0  0  0  0  0  0  0  0  0  0  0  0
    3.5177    2.6000    0.0000 C   0  0  0  0  0  0  0  0  0  0  0  0
    3.5177    0.8667    0.0000 N   0  0  0  0  0  0  0  0  0  0  0  0
    1.5294    2.6000    0.0000 C   0  0  0  0  0  0  0  0  0  0  0  0
    3.0079    3.5177    0.0000 C   0  0  0  0  0  0  0  0  0  0  0  0
    4.4863    2.6000    0.0000 N   0  0  0  0  0  0  0  0  0  0  0  0
    4.4863    0.8667    0.0000 O   0  0  0  0  0  0  0  0  0  0  0  0
    3.0079    0.0000    0.0000 O   0  0  0  0  0  0  0  0  0  0  0  0
    2.0392    3.5177    0.0000 C   0  0  0  0  0  0  0  0  0  0  0  0
    0.5098    2.6000    0.0000 C   0  0  0  0  0  0  0  0  0  0  0  0
    5.0471    3.5177    0.0000 O   0  0  0  0  0  0  0  0  0  0  0  0
    5.0471    1.7843    0.0000 O   0  0  0  0  0  0  0  0  0  0  0  0
    0.0000    1.7843    0.0000 O   0  0  0  0  0  0  0  0  0  0  0  0
  2  1  2  0  0  0  0 
  1  3  1  0  0  0  0 
  1  4  1  0  0  0  0 
  5  2  1  0  0  0  0 
  3  6  2  0  0  0  0 
  3  7  1  0  0  0  0 
  4  8  2  0  0  0  0 
  4  9  2  0  0  0  0 
 10  5  2  0  0  0  0 
  5 11  1  0  0  0  0 
  6 10  1  0  0  0  0 
  7 12  2  0  0  0  0 
  7 13  2  0  0  0  0 
 11 14  1  0  0  0  0 
M  END
> <Name>
3,4-Dinitrobenzyl alcohol

> <Source>
NIST2DMolFile

> <Tox>
4.090

> <CAS>
79544-31-3

$$$$

  CDK

 10  9  0  0  0  0  0  0  0  0999 V2000
    2.0396    0.7704    0.0000 C   0  0  0  0  0  0  0  0  0  0  0  0
    1.7696   -0.0092    0.0000 C   0  0  0  0  0  0  0  0  0  0  0  0
    0.9594   -0.1651    0.0000 C   0  0  0  0  0  0  0  0  0  0  0  0
    0.1493   -0.3210    0.0000 C   0  0  0  0  0  0  0  0  0  0  0  0
   -0.6608   -0.4769    0.0000 C   0  0  0  0  0  0  0  0  0  0  0  0
    0.3052   -1.1311    0.0000 C   0  0  0  0  0  0  0  0  0  0  0  0
   -1.2009    0.1467    0.0000 C   0  0  0  0  0  0  0  0  0  0  0  0
   -0.9309    0.9263    0.0000 C   0  0  0  0  0  0  0  0  0  0  0  0
   -2.0111   -0.0092    0.0000 C   0  0  0  0  0  0  0  0  0  0  0  0
   -0.1208    1.0822    0.0000 O   0  0  0  0  0  0  0  0  0  0  0  0
  1  2  2  0  0  0  0 
  2  3  1  0  0  0  0 
  3  4  1  0  0  0  0 
  4  5  1  0  0  0  0 
  4  6  1  0  0  0  0 
  5  7  2  0  0  0  0 
  7  8  1  0  0  0  0 
  7  9  1  0  0  0  0 
  8 10  2  0  0  0  0 
M  END
> <Name>
2,4-Dimethyl-2,6-heptadienal

> <Source>
Smiles

> <Tox>
3.080

> <CAS>
80192-48-9

$$$$

  CDK

 11 11  0  0  0  0  0  0  0  0999 V2000
    4.9000    2.4249    0.0000 C   0  0  0  0  0  0  0  0  0  0  0  0
    4.2000    1.2124    0.0000 C   0  0  0  0  0  0  0  0  0  0  0  0
    4.2000    3.6373    0.0000 O   0  0  0  0  0  0  0  0  0  0  0  0
    4.9000    0.0000    0.0000 C   0  0  0  0  0  0  0  0  0  0  0  0
    2.8000    1.2124    0.0000 C   0  0  0  0  0  0  0  0  0  0  0  0
    6.3000    0.0000    0.0000 C   0  0  0  0  0  0  0  0  0  0  0  0
    2.1000    0.0000    0.0000 C   0  0  0  0  0  0  0  0  0  0  0  0
    2.1000    2.4249    0.0000 C   0  0  0  0  0  0  0  0  0  0  0  0
    0.7000    0.0000    0.0000 C   0  0  0  0  0  0  0  0  0  0  0  0
    0.7000    2.4249    0.0000 C   0  0  0  0  0  0  0  0  0  0  0  0
    0.0000    1.2124    0.0000 C   0  0  0  0  0  0  0  0  0  0  0  0
  1  2  1  0  0  0  0 
  1  3  1  0  0  0  0 
  2  4  1  0  0  0  0 
  2  5  1  0  0  0  0 
  4  6  1  0  0  0  0 
  5  7  1  0  0  0  0 
  5  8  2  0  0  0  0 
  7  9  2  0  0  0  0 
 10  8  1  0  0  0  0 
  9 11  1  0  0  0  0 
 11 10  2  0  0  0  0 
M  END
> <Name>
b-Ethylphenethyl alcohol

> <Source>
Name2DMolFile

> <Tox>
2.890

> <CAS>
89104-46-1

$$$$

  CDK

  8  7  0  0  0  0  0  0  0  0999 V2000
    2.6124    0.0000    0.0000 C   0  0  0  0  0  0  0  0  0  0  0  0
    1.4000    0.7000    0.0000 C   0  0  0  0  0  0  0  0  0  0  0  0
    3.8249    0.7000    0.0000 O   0  0  0  0  0  0  0  0  0  0  0  0
    0.1876    0.0000    0.0000 N   0  0  0  0  0  0  0  0  0  0  0  0
    1.4000    2.1000    0.0000 C   0  0  0  0  0  0  0  0  0  0  0  0
    0.0000    2.1000    0.0000 C   0  0  0  0  0  0  0  0  0  0  0  0
    1.4000    3.5000    0.0000 C   0  0  0  0  0  0  0  0  0  0  0  0
    2.8000    2.1000    0.0000 C   0  0  0  0  0  0  0  0  0  0  0  0
  1  2  1  0  0  0  0 
  1  3  1  0  0  0  0 
  2  4  1  1  0  0  0 
  2  5  1  0  0  0  0 
  5  6  1  0  0  0  0 
  5  7  1  0  0  0  0 
  5  8  1  0  0  0  0 
M  END
> <Name>
1-Butanol,2-amino-3,3-dimethyl-, (S)-

> <Source>
Name2DMolFile

> <Tox>
2.282

> <CAS>
112245-13-3

$$$$

  CDK

 13 13  0  0  0  0  0  0  0  0999 V2000
    1.7212   -1.1254    4.3815 Cl  0  0  0  0  0  0  0  0  0  0  0  0
    1.8083   -1.1142    2.6550 C   0  0  0  0  0  0  0  0  0  0  0  0
    2.8764   -1.6932    1.9697 C   0  0  0  0  0  0  0  0  0  0  0  0
    0.7731   -0.5047    1.9461 C   0  0  0  0  0  0  0  0  0  0  0  0
    3.9513   -2.3238    2.6578 N   0  0  0  0  0  0  0  0  0  0  0  0
    2.9095   -1.6626    0.5756 C   0  0  0  0  0  0  0  0  0  0  0  0
    0.8060   -0.4743    0.5520 C   0  0  0  0  0  0  0  0  0  0  0  0
    4.8846   -2.8266    1.9896 O   0  0  0  0  0  0  0  0  0  0  0  0
    3.9311   -2.3562    3.9103 O   0  0  0  0  0  0  0  0  0  0  0  0
    1.8743   -1.0531   -0.1334 C   0  0  0  0  0  0  0  0  0  0  0  0
    1.9050   -1.0238   -1.5312 N   0  0  0  0  0  0  0  0  0  0  0  0
    2.4470   -0.0697   -1.9661 C   0  0  0  0  0  0  0  0  0  0  0  0
    3.1733    1.2098   -2.5798 S   0  0  0  0  0  0  0  0  0  0  0  0
  1  2  1  0  0  0  0 
  3  2  2  0  0  0  0 
  2  4  1  0  0  0  0 
  5  3  1  0  0  0  0 
  3  6  1  0  0  0  0 
  7  4  2  0  0  0  0 
  8  5  1  0  0  0  0 
  9  5  2  0  0  0  0 
  6 10  2  0  0  0  0 
 10  7  1  0  0  0  0 
 11 10  1  0  0  0  0 
 11 12  2  0  0  0  0 
 13 12  2  0  0  0  0 
M  CHG  1   5   1
M  CHG  1   8  -1
M  END
> <Name>
4-Chloro-3-nitrophenyl isothiocyanate

> <Source>
Chemidplus3DMolFile

> <Tox>
5.110

> <CAS>
127142-66-9

$$$$
