
  CDK

 17 18  0  0  0  0  0  0  0  0999 V2000
    2.3044   -0.0000    0.0000 O   0  0  0  0  0  0  0  0  0  0  0  0
    2.3044   -1.3295    0.0000 C   0  0  0  0  0  0  0  0  0  0  0  0
    3.4567   -1.9942    0.0000 C   0  0  0  0  0  0  0  0  0  0  0  0
    1.1522   -1.9942    0.0000 N   0  0  0  0  0  0  0  0  0  0  0  0
    4.7640   -2.2232    0.0000 C   0  0  0  0  0  0  0  0  0  0  0  0
    3.4567   -3.3237    0.0000 C   0  0  0  0  0  0  0  0  0  0  0  0
    3.9146   -0.7460    0.0000 C   0  0  0  0  0  0  0  0  0  0  0  0
    1.1522   -3.3237    0.0000 C   0  0  0  0  0  0  0  0  0  0  0  0
    5.6208   -1.2039    0.0000 C   0  0  0  0  0  0  0  0  0  0  0  0
    5.2219   -3.4714    0.0000 C   0  0  0  0  0  0  0  0  0  0  0  0
    4.6089   -3.9884    0.0000 O   0  0  0  0  0  0  0  0  0  0  0  0
    2.3044   -3.9884    0.0000 N   0  0  0  0  0  0  0  0  0  0  0  0
    5.2219   -0.5096    0.0000 C   0  0  0  0  0  0  0  0  0  0  0  0
    0.0000   -3.9884    0.0000 O   0  0  0  0  0  0  0  0  0  0  0  0
    6.9281   -1.4329    0.0000 C   0  0  0  0  0  0  0  0  0  0  0  0
    6.5292   -3.7078    0.0000 C   0  0  0  0  0  0  0  0  0  0  0  0
    7.3860   -2.6885    0.0000 C   0  0  0  0  0  0  0  0  0  0  0  0
  1  2  2  0  0  0  0 
  2  3  1  0  0  0  0 
  2  4  1  0  0  0  0 
  3  5  1  0  0  0  0 
  3  6  1  0  0  0  0 
  3  7  1  0  0  0  0 
  8  4  1  0  0  0  0 
  5  9  2  0  0  0  0 
  5 10  1  0  0  0  0 
  6 11  2  0  0  0  0 
  6 12  1  0  0  0  0 
  7 13  1  0  0  0  0 
 12  8  1  0  0  0  0 
  8 14  2  0  0  0  0 
  9 15  1  0  0  0  0 
 16 10  2  0  0  0  0 
 15 17  2  0  0  0  0 
 17 16  1  0  0  0  0 
M  END
> <Name>
2,4,6(1H,3H,5H)-Pyrimidinetrione, 5-ethyl-5-phenyl-

> <Source>
DSSTox2DMolFile

> <Tox>
3.156

> <CAS>
50-06-6

$$$$

  CDK

 15 15  0  0  0  0  0  0  0  0999 V2000
    3.4519    2.5014    0.0000 C   0  0  0  0  0  0  0  0  0  0  0  0
    2.5514    2.0011    0.0000 C   0  0  0  0  0  0  0  0  0  0  0  0
    4.3024    2.0011    0.0000 O   0  0  0  0  0  0  0  0  0  0  0  0
    2.0511    2.8516    0.0000 C   0  0  0  0  0  0  0  0  0  0  0  0
    3.1017    1.1006    0.0000 O   0  0  0  0  0  0  0  0  0  0  0  0
    1.7009    1.5008    0.0000 C   0  0  0  0  0  0  0  0  0  0  0  0
    5.1528    2.5514    0.0000 C   0  0  0  0  0  0  0  0  0  0  0  0
    2.5514    3.7020    0.0000 C   0  0  0  0  0  0  0  0  0  0  0  0
    0.8004    2.0011    0.0000 C   0  0  0  0  0  0  0  0  0  0  0  0
    1.7009    0.5003    0.0000 C   0  0  0  0  0  0  0  0  0  0  0  0
    5.1528    3.5019    0.0000 N   0  0  0  0  0  0  0  0  0  0  0  0
    6.0533    2.0511    0.0000 O   0  0  0  0  0  0  0  0  0  0  0  0
    0.0000    1.5008    0.0000 C   0  0  0  0  0  0  0  0  0  0  0  0
    0.8505    0.0000    0.0000 C   0  0  0  0  0  0  0  0  0  0  0  0
    0.0000    0.4502    0.0000 C   0  0  0  0  0  0  0  0  0  0  0  0
  1  2  1  0  0  0  0 
  1  3  1  0  0  0  0 
  2  4  1  0  0  0  0 
  2  5  1  0  0  0  0 
  2  6  1  0  0  0  0 
  3  7  1  0  0  0  0 
  4  8  1  0  0  0  0 
  9  6  2  0  0  0  0 
  6 10  1  0  0  0  0 
  7 11  1  0  0  0  0 
  7 12  2  0  0  0  0 
 13  9  1  0  0  0  0 
 10 14  2  0  0  0  0 
 15 13  2  0  0  0  0 
 14 15  1  0  0  0  0 
M  END
> <Name>
1,2-Butanediol, 2-phenyl-, 1-carbamate

> <Source>
NIST2DMolFile

> <Tox>
2.537

> <CAS>
50-19-1

$$$$

  CDK

  6  5  0  0  0  0  0  0  0  0999 V2000
    1.9943   -1.1509    0.0000 C   0  0  0  0  0  0  0  0  0  0  0  0
    3.3250   -1.1509    0.0000 O   0  0  0  0  0  0  0  0  0  0  0  0
    1.3307   -0.0000    0.0000 O   0  0  0  0  0  0  0  0  0  0  0  0
    1.3307   -2.3053    0.0000 C   0  0  0  0  0  0  0  0  0  0  0  0
    1.9943   -3.4563    0.0000 C   0  0  0  0  0  0  0  0  0  0  0  0
    0.0000   -2.3053    0.0000 O   0  0  0  0  0  0  0  0  0  0  0  0
  1  2  1  0  0  0  0 
  1  3  2  0  0  0  0 
  1  4  1  0  0  0  0 
  4  5  1  0  0  0  0 
  4  6  1  0  0  0  0 
M  END
> <Name>
Propanoic acid, 2-hydroxy-

> <Source>
DSSTox2DMolFile

> <Tox>
1.405

> <CAS>
50-21-5

$$$$

  CDK

 12 12  0  0  0  0  0  0  0  0999 V2000
    1.5225   -1.4118    0.0000 C   0  0  0  0  0  0  0  0  0  0  0  0
    0.6485   -0.2114    0.0000 C   0  0  0  0  0  0  0  0  0  0  0  0
    2.7413   -1.4667    0.0003 O   0  0  0  0  0  0  0  0  0  0  0  0
    0.9266   -2.6277   -0.0003 O   0  0  0  0  0  0  0  0  0  0  0  0
   -0.7535   -0.2983    0.0000 C   0  0  0  0  0  0  0  0  0  0  0  0
    1.2329    1.0660    0.0000 C   0  0  0  0  0  0  0  0  0  0  0  0
   -1.5304    0.8644    0.0000 C   0  0  0  0  0  0  0  0  0  0  0  0
   -1.5820   -1.7551    0.0001 Cl  0  0  0  0  0  0  0  0  0  0  0  0
    0.4446    2.2198    0.0000 C   0  0  0  0  0  0  0  0  0  0  0  0
    2.8946    1.3009   -0.0001 Cl  0  0  0  0  0  0  0  0  0  0  0  0
   -0.9373    2.1238    0.0000 C   0  0  0  0  0  0  0  0  0  0  0  0
   -3.2080    0.7443    0.0000 Cl  0  0  0  0  0  0  0  0  0  0  0  0
  1  2  1  0  0  0  0 
  1  3  2  0  0  0  0 
  1  4  1  0  0  0  0 
  2  5  1  0  0  0  0 
  2  6  2  0  0  0  0 
  5  7  2  0  0  0  0 
  5  8  1  0  0  0  0 
  9  6  1  0  0  0  0 
  6 10  1  0  0  0  0 
  7 11  1  0  0  0  0 
  7 12  1  0  0  0  0 
 11  9  2  0  0  0  0 
M  END
> <Name>
Benzoic acid, 2,3,6-trichloro-

> <Source>
DougDB3DMolFile

> <Tox>
2.540

> <CAS>
50-31-7

$$$$

  CDK

 90 96  0  0  0  0  0  0  0  0999 V2000
   11.5534  -11.4484    0.0000 C   0  0  0  0  0  0  0  0  0  0  0  0
   11.5534  -12.6457    0.0000 C   0  0  0  0  0  0  0  0  0  0  0  0
   12.5827  -10.8602    0.0000 C   0  0  0  0  0  0  0  0  0  0  0  0
   10.5031  -10.8602    0.0000 N   0  0  0  0  0  0  0  0  0  0  0  0
   10.5031  -13.2549    0.0000 O   0  0  0  0  0  0  0  0  0  0  0  0
   12.5827  -13.2549    0.0000 C   0  0  0  0  0  0  0  0  0  0  0  0
   12.5827   -9.6629    0.0000 C   0  0  0  0  0  0  0  0  0  0  0  0
   13.6330  -11.4484    0.0000 C   0  0  0  0  0  0  0  0  0  0  0  0
    9.4738  -11.4484    0.0000 C   0  0  0  0  0  0  0  0  0  0  0  0
    9.4738  -12.6457    0.0000 C   0  0  0  0  0  0  0  0  0  0  0  0
   13.6330  -12.6457    0.0000 C   0  0  0  0  0  0  0  0  0  0  0  0
   12.5827  -14.4523    0.0000 C   0  0  0  0  0  0  0  0  0  0  0  0
   13.6330   -9.0537    0.0000 N   0  0  0  0  0  0  0  0  0  0  0  0
   11.5534   -9.0537    0.0000 O   0  0  0  0  0  0  0  0  0  0  0  0
   14.6623  -10.8602    0.0000 N   0  0  0  0  0  0  0  0  0  0  0  0
    8.4235  -10.8602    0.0000 C   0  0  0  0  0  0  0  0  0  0  0  0
    8.4235  -13.2549    0.0000 C   0  0  0  0  0  0  0  0  0  0  0  0
   14.6623  -13.2549    0.0000 O   0  0  0  0  0  0  0  0  0  0  0  0
   13.6330   -7.7933    0.0000 C   0  0  0  0  0  0  0  0  0  0  0  0
    8.4235   -9.6629    0.0000 C   0  0  0  0  0  0  0  0  0  0  0  0
    7.3942  -11.4484    0.0000 C   0  0  0  0  0  0  0  0  0  0  0  0
    7.3942  -12.6457    0.0000 C   0  0  0  0  0  0  0  0  0  0  0  0
    8.4235  -14.4523    0.0000 C   0  0  0  0  0  0  0  0  0  0  0  0
   12.5407   -7.1631    0.0000 C   0  0  0  0  0  0  0  0  0  0  0  0
   14.7043   -7.1631    0.0000 C   0  0  0  0  0  0  0  0  0  0  0  0
    7.3942   -9.0537    0.0000 N   0  0  0  0  0  0  0  0  0  0  0  0
    9.4738   -9.0537    0.0000 O   0  0  0  0  0  0  0  0  0  0  0  0
   12.5407   -2.2897    0.0000 N   0  0  0  0  0  0  0  0  0  0  0  0
   11.4694   -7.7933    0.0000 O   0  0  0  0  0  0  0  0  0  0  0  0
   14.7043   -5.9238    0.0000 C   0  0  0  0  0  0  0  0  0  0  0  0
   15.8177   -7.7723    0.0000 O   0  0  0  0  0  0  0  0  0  0  0  0
    7.3942   -7.7933    0.0000 C   0  0  0  0  0  0  0  0  0  0  0  0
   13.5280   -1.8065    0.0000 C   0  0  0  0  0  0  0  0  0  0  0  0
   16.8470   -7.1841    0.0000 C   0  0  0  0  0  0  0  0  0  0  0  0
    8.4865   -7.1631    0.0000 C   0  0  0  0  0  0  0  0  0  0  0  0
    6.3229   -7.1631    0.0000 C   0  0  0  0  0  0  0  0  0  0  0  0
   13.5280   -0.6092    0.0000 C   0  0  0  0  0  0  0  0  0  0  0  0
   15.6706   -2.3947    0.0000 C   0  0  0  0  0  0  0  0  0  0  0  0
   16.8470   -5.9868    0.0000 O   0  0  0  0  0  0  0  0  0  0  0  0
   17.9183   -7.7723    0.0000 C   0  0  0  0  0  0  0  0  0  0  0  0
    8.4865   -2.2897    0.0000 N   0  0  0  0  0  0  0  0  0  0  0  0
    9.5578   -7.7933    0.0000 O   0  0  0  0  0  0  0  0  0  0  0  0
    6.3229   -5.9238    0.0000 C   0  0  0  0  0  0  0  0  0  0  0  0
    5.1885   -7.7723    0.0000 O   0  0  0  0  0  0  0  0  0  0  0  0
   12.4777   -0.0000    0.0000 C   0  0  0  0  0  0  0  0  0  0  0  0
   14.5573   -0.0000    0.0000 C   0  0  0  0  0  0  0  0  0  0  0  0
   17.9603   -1.4704    0.0000 N   0  0  0  0  0  0  0  0  0  0  0  0
   15.6706   -3.5921    0.0000 O   0  0  0  0  0  0  0  0  0  0  0  0
   18.9266   -7.1841    0.0000 N   0  0  0  0  0  0  0  0  0  0  0  0
   17.9183   -8.9697    0.0000 C   0  0  0  0  0  0  0  0  0  0  0  0
    7.4992   -1.8065    0.0000 C   0  0  0  0  0  0  0  0  0  0  0  0
    4.1592   -7.1841    0.0000 C   0  0  0  0  0  0  0  0  0  0  0  0
   18.3384   -0.3151    0.0000 C   0  0  0  0  0  0  0  0  0  0  0  0
   18.9266   -2.1846    0.0000 C   0  0  0  0  0  0  0  0  0  0  0  0
   18.9266   -5.9868    0.0000 C   0  0  0  0  0  0  0  0  0  0  0  0
   19.9769   -7.7723    0.0000 C   0  0  0  0  0  0  0  0  0  0  0  0
   18.9266   -9.5788    0.0000 C   0  0  0  0  0  0  0  0  0  0  0  0
   16.8470   -9.5788    0.0000 C   0  0  0  0  0  0  0  0  0  0  0  0
    7.4992   -0.6092    0.0000 C   0  0  0  0  0  0  0  0  0  0  0  0
    5.3566   -2.3947    0.0000 C   0  0  0  0  0  0  0  0  0  0  0  0
    4.1592   -5.9868    0.0000 O   0  0  0  0  0  0  0  0  0  0  0  0
    3.1089   -7.7723    0.0000 C   0  0  0  0  0  0  0  0  0  0  0  0
   19.5358   -0.3151    0.0000 C   0  0  0  0  0  0  0  0  0  0  0  0
   19.9139   -1.4704    0.0000 C   0  0  0  0  0  0  0  0  0  0  0  0
   18.9266   -3.5711    0.0000 C   0  0  0  0  0  0  0  0  0  0  0  0
   19.9769   -5.3776    0.0000 C   0  0  0  0  0  0  0  0  0  0  0  0
   17.9183   -5.3776    0.0000 O   0  0  0  0  0  0  0  0  0  0  0  0
    8.5285   -0.0000    0.0000 C   0  0  0  0  0  0  0  0  0  0  0  0
    6.4489   -0.0000    0.0000 C   0  0  0  0  0  0  0  0  0  0  0  0
    3.0459   -1.4704    0.0000 N   0  0  0  0  0  0  0  0  0  0  0  0
    5.3566   -3.5921    0.0000 O   0  0  0  0  0  0  0  0  0  0  0  0
    2.0796   -7.1841    0.0000 N   0  0  0  0  0  0  0  0  0  0  0  0
    3.1089   -8.9697    0.0000 C   0  0  0  0  0  0  0  0  0  0  0  0
   17.9183   -4.1802    0.0000 O   0  0  0  0  0  0  0  0  0  0  0  0
   19.9769   -4.1802    0.0000 N   0  0  0  0  0  0  0  0  0  0  0  0
    2.6678   -0.3151    0.0000 C   0  0  0  0  0  0  0  0  0  0  0  0
    2.0796   -2.1846    0.0000 C   0  0  0  0  0  0  0  0  0  0  0  0
    2.0796   -5.9868    0.0000 C   0  0  0  0  0  0  0  0  0  0  0  0
    1.0293   -7.7723    0.0000 C   0  0  0  0  0  0  0  0  0  0  0  0
    2.0796   -9.5788    0.0000 C   0  0  0  0  0  0  0  0  0  0  0  0
    4.1592   -9.5788    0.0000 C   0  0  0  0  0  0  0  0  0  0  0  0
   21.0062   -3.5711    0.0000 C   0  0  0  0  0  0  0  0  0  0  0  0
    1.4704   -0.3151    0.0000 C   0  0  0  0  0  0  0  0  0  0  0  0
    1.1133   -1.4704    0.0000 C   0  0  0  0  0  0  0  0  0  0  0  0
    2.0796   -3.5711    0.0000 C   0  0  0  0  0  0  0  0  0  0  0  0
    1.0293   -5.3776    0.0000 C   0  0  0  0  0  0  0  0  0  0  0  0
    3.1089   -5.3776    0.0000 O   0  0  0  0  0  0  0  0  0  0  0  0
    3.1089   -4.1802    0.0000 O   0  0  0  0  0  0  0  0  0  0  0  0
    1.0293   -4.1802    0.0000 N   0  0  0  0  0  0  0  0  0  0  0  0
    0.0000   -3.5711    0.0000 C   0  0  0  0  0  0  0  0  0  0  0  0
  1  2  1  0  0  0  0 
  1  3  1  0  0  0  0 
  1  4  2  0  0  0  0 
  2  5  1  0  0  0  0 
  2  6  2  0  0  0  0 
  3  7  1  0  0  0  0 
  3  8  2  0  0  0  0 
  4  9  1  0  0  0  0 
  5 10  1  0  0  0  0 
  6 11  1  0  0  0  0 
  6 12  1  0  0  0  0 
  7 13  1  0  0  0  0 
  7 14  2  0  0  0  0 
  8 15  1  0  0  0  0 
  8 11  1  0  0  0  0 
  9 16  2  0  0  0  0 
  9 10  1  0  0  0  0 
 10 17  2  0  0  0  0 
 11 18  2  0  0  0  0 
 19 13  1  6  0  0  0 
 16 20  1  0  0  0  0 
 16 21  1  0  0  0  0 
 17 22  1  0  0  0  0 
 17 23  1  0  0  0  0 
 19 24  1  0  0  0  0 
 19 25  1  0  0  0  0 
 20 26  1  0  0  0  0 
 20 27  2  0  0  0  0 
 21 22  2  0  0  0  0 
 24 28  1  0  0  0  0 
 24 29  2  0  0  0  0 
 25 30  1  1  0  0  0 
 25 31  1  0  0  0  0 
 32 26  1  1  0  0  0 
 28 33  1  0  0  0  0 
 31 34  1  0  0  0  0 
 32 35  1  0  0  0  0 
 32 36  1  0  0  0  0 
 33 37  1  6  0  0  0 
 33 38  1  0  0  0  0 
 34 39  2  0  0  0  0 
 34 40  1  0  0  0  0 
 35 41  1  0  0  0  0 
 35 42  2  0  0  0  0 
 36 43  1  6  0  0  0 
 36 44  1  0  0  0  0 
 37 45  1  0  0  0  0 
 37 46  1  0  0  0  0 
 38 47  1  0  0  0  0 
 38 48  2  0  0  0  0 
 49 40  1  0  0  0  0 
 40 50  1  1  0  0  0 
 41 51  1  0  0  0  0 
 44 52  1  0  0  0  0 
 47 53  1  0  0  0  0 
 47 54  1  0  0  0  0 
 55 49  1  0  0  0  0 
 49 56  1  0  0  0  0 
 50 57  1  0  0  0  0 
 50 58  1  0  0  0  0 
 51 59  1  1  0  0  0 
 51 60  1  0  0  0  0 
 52 61  2  0  0  0  0 
 52 62  1  0  0  0  0 
 53 63  1  0  0  0  0 
 54 64  1  0  0  0  0 
 54 65  1  0  0  0  0 
 66 55  1  0  0  0  0 
 55 67  2  0  0  0  0 
 59 68  1  0  0  0  0 
 59 69  1  0  0  0  0 
 60 70  1  0  0  0  0 
 60 71  2  0  0  0  0 
 72 62  1  0  0  0  0 
 62 73  1  6  0  0  0 
 63 64  1  0  0  0  0 
 65 74  2  0  0  0  0 
 65 75  1  0  0  0  0 
 75 66  1  0  0  0  0 
 70 76  1  0  0  0  0 
 70 77  1  0  0  0  0 
 78 72  1  0  0  0  0 
 72 79  1  0  0  0  0 
 73 80  1  0  0  0  0 
 73 81  1  0  0  0  0 
 75 82  1  0  0  0  0 
 76 83  1  0  0  0  0 
 77 84  1  0  0  0  0 
 77 85  1  0  0  0  0 
 86 78  1  0  0  0  0 
 78 87  2  0  0  0  0 
 83 84  1  0  0  0  0 
 85 88  2  0  0  0  0 
 85 89  1  0  0  0  0 
 89 86  1  0  0  0  0 
 89 90  1  0  0  0  0 
M  END
> <Name>
Actinomycin D

> <Source>
DSSTox2DMolFile

> <Tox>
5.241

> <CAS>
50-76-0

$$$$

  CDK

 18 19  0  0  0  0  0  0  0  0999 V2000
    4.6015    0.0000    0.0000 Cl  0  0  0  0  0  0  0  0  0  0  0  0
    4.6015    1.0003    0.0000 C   0  0  0  0  0  0  0  0  0  0  0  0
    3.7513    1.5005    0.0000 C   0  0  0  0  0  0  0  0  0  0  0  0
    3.7513    2.5008    0.0000 N   0  0  0  0  0  0  0  0  0  0  0  0
    4.6015    3.0010    0.0000 C   0  0  0  0  0  0  0  0  0  0  0  0
    2.9010    3.0010    0.0000 C   0  0  0  0  0  0  0  0  0  0  0  0
    5.5018    2.5008    0.0000 C   0  0  0  0  0  0  0  0  0  0  0  0
    2.0007    2.5008    0.0000 C   0  0  0  0  0  0  0  0  0  0  0  0
    6.3521    3.0010    0.0000 C   0  0  0  0  0  0  0  0  0  0  0  0
    5.5018    1.5005    0.0000 C   0  0  0  0  0  0  0  0  0  0  0  0
    1.5005    3.3511    0.0000 C   0  0  0  0  0  0  0  0  0  0  0  0
    1.5005    1.6005    0.0000 C   0  0  0  0  0  0  0  0  0  0  0  0
    7.2024    2.5008    0.0000 C   0  0  0  0  0  0  0  0  0  0  0  0
    6.3521    1.0003    0.0000 C   0  0  0  0  0  0  0  0  0  0  0  0
    0.5002    3.3511    0.0000 C   0  0  0  0  0  0  0  0  0  0  0  0
    0.5002    1.6005    0.0000 C   0  0  0  0  0  0  0  0  0  0  0  0
    7.2024    1.5005    0.0000 C   0  0  0  0  0  0  0  0  0  0  0  0
    0.0000    2.5008    0.0000 C   0  0  0  0  0  0  0  0  0  0  0  0
  1  2  1  0  0  0  0 
  2  3  1  0  0  0  0 
  3  4  1  0  0  0  0 
  4  5  1  0  0  0  0 
  4  6  1  0  0  0  0 
  7  5  1  0  0  0  0 
  6  8  1  0  0  0  0 
  7  9  1  0  0  0  0 
 10  7  2  0  0  0  0 
 11  8  2  0  0  0  0 
  8 12  1  0  0  0  0 
  9 13  2  0  0  0  0 
 14 10  1  0  0  0  0 
 15 11  1  0  0  0  0 
 12 16  2  0  0  0  0 
 13 17  1  0  0  0  0 
 17 14  2  0  0  0  0 
 18 15  2  0  0  0  0 
 16 18  1  0  0  0  0 
M  END
> <Name>
Benzenemethanamine, N-(2-chloroethyl)-N-(phenylmethyl)-

> <Source>
NIST2DMolFile

> <Tox>
2.034

> <CAS>
51-50-3

$$$$

  CDK

 10 10  0  0  0  0  0  0  0  0999 V2000
    3.4510   -0.0000    0.0000 C   0  0  0  0  0  0  0  0  0  0  0  0
    2.3083   -0.6603    0.0000 C   0  0  0  0  0  0  0  0  0  0  0  0
    4.6052   -0.6603    0.0000 C   0  0  0  0  0  0  0  0  0  0  0  0
    1.1369   -0.0000    0.0000 C   0  0  0  0  0  0  0  0  0  0  0  0
    2.3083   -1.9925    0.0000 C   0  0  0  0  0  0  0  0  0  0  0  0
    4.6052   -2.0040    0.0000 N   0  0  0  0  0  0  0  0  0  0  0  0
    5.7421   -0.0000    0.0000 C   0  0  0  0  0  0  0  0  0  0  0  0
    0.0000   -0.6776    0.0000 C   0  0  0  0  0  0  0  0  0  0  0  0
    1.1369   -2.6644    0.0000 C   0  0  0  0  0  0  0  0  0  0  0  0
    0.0000   -2.0040    0.0000 C   0  0  0  0  0  0  0  0  0  0  0  0
  1  2  1  0  0  0  0 
  1  3  1  0  0  0  0 
  2  4  2  0  0  0  0 
  2  5  1  0  0  0  0 
  3  6  1  6  0  0  0 
  3  7  1  0  0  0  0 
  4  8  1  0  0  0  0 
  5  9  2  0  0  0  0 
  8 10  2  0  0  0  0 
  9 10  1  0  0  0  0 
M  END
> <Name>
Benzeneethanamine, alpha-methyl-, (alphaS)-

> <Source>
DSSTox2DMolFile

> <Tox>
3.551

> <CAS>
51-64-9

$$$$

  CDK

  8  7  0  0  0  0  0  0  0  0999 V2000
    6.9115   -1.9974    0.0000 Cl  0  0  0  0  0  0  0  0  0  0  0  0
    5.7573   -1.3339    0.0000 C   0  0  0  0  0  0  0  0  0  0  0  0
    4.6100   -1.9974    0.0000 C   0  0  0  0  0  0  0  0  0  0  0  0
    3.4558   -1.3339    0.0000 N   0  0  0  0  0  0  0  0  0  0  0  0
    3.4558   -0.0000    0.0000 C   0  0  0  0  0  0  0  0  0  0  0  0
    2.3015   -1.9974    0.0000 C   0  0  0  0  0  0  0  0  0  0  0  0
    1.1542   -1.3339    0.0000 C   0  0  0  0  0  0  0  0  0  0  0  0
    0.0000   -1.9974    0.0000 Cl  0  0  0  0  0  0  0  0  0  0  0  0
  1  2  1  0  0  0  0 
  2  3  1  0  0  0  0 
  3  4  1  0  0  0  0 
  4  5  1  0  0  0  0 
  4  6  1  0  0  0  0 
  6  7  1  0  0  0  0 
  7  8  1  0  0  0  0 
M  END
> <Name>
Ethanamine, 2-chloro-N-(2-chloroethyl)-N-methyl-

> <Source>
DSSTox2DMolFile

> <Tox>
4.193

> <CAS>
51-75-2

$$$$

  CDK

 11 13  0  0  0  0  0  0  0  0999 V2000
    0.0000   -2.4817    0.0000 S   0  0  0  0  0  0  0  0  0  0  0  0
    1.3302   -2.4817    0.0000 P   0  0  0  0  0  0  0  0  0  0  0  0
    1.3302   -1.1515    0.0000 N   0  0  0  0  0  0  0  0  0  0  0  0
    2.6604   -2.4817    0.0000 N   0  0  0  0  0  0  0  0  0  0  0  0
    1.3302   -3.8119    0.0000 N   0  0  0  0  0  0  0  0  0  0  0  0
    0.6651   -0.0000    0.0000 C   0  0  0  0  0  0  0  0  0  0  0  0
    1.9953   -0.0000    0.0000 C   0  0  0  0  0  0  0  0  0  0  0  0
    3.8119   -1.8166    0.0000 C   0  0  0  0  0  0  0  0  0  0  0  0
    3.8119   -3.1468    0.0000 C   0  0  0  0  0  0  0  0  0  0  0  0
    1.9953   -4.9634    0.0000 C   0  0  0  0  0  0  0  0  0  0  0  0
    0.6651   -4.9634    0.0000 C   0  0  0  0  0  0  0  0  0  0  0  0
  1  2  2  0  0  0  0 
  2  3  1  0  0  0  0 
  2  4  1  0  0  0  0 
  2  5  1  0  0  0  0 
  3  6  1  0  0  0  0 
  3  7  1  0  0  0  0 
  4  8  1  0  0  0  0 
  4  9  1  0  0  0  0 
  5 10  1  0  0  0  0 
  5 11  1  0  0  0  0 
  6  7  1  0  0  0  0 
  8  9  1  0  0  0  0 
 10 11  1  0  0  0  0 
M  END
> <Name>
Aziridine, 1,1',1''-phosphinothioylidynetris-

> <Source>
DSSTox2DMolFile

> <Tox>
3.915

> <CAS>
52-24-4

$$$$

  CDK

 22 23  0  0  0  0  0  0  0  0999 V2000
    4.2365    1.6447    0.0000 N   0  0  0  0  0  0  0  0  0  0  0  0
    5.0838    2.2428    0.0000 C   0  0  0  0  0  0  0  0  0  0  0  0
    3.3393    2.0933    0.0000 C   0  0  0  0  0  0  0  0  0  0  0  0
    5.9809    1.7943    0.0000 C   0  0  0  0  0  0  0  0  0  0  0  0
    5.0838    3.1898    0.0000 C   0  0  0  0  0  0  0  0  0  0  0  0
    2.5917    1.6447    0.0000 C   0  0  0  0  0  0  0  0  0  0  0  0
    3.3393    3.1400    0.0000 C   0  0  0  0  0  0  0  0  0  0  0  0
    6.8282    2.2927    0.0000 C   0  0  0  0  0  0  0  0  0  0  0  0
    1.6447    2.0933    0.0000 C   0  0  0  0  0  0  0  0  0  0  0  0
    2.5917    0.5981    0.0000 C   0  0  0  0  0  0  0  0  0  0  0  0
    2.4920    3.6384    0.0000 C   0  0  0  0  0  0  0  0  0  0  0  0
    7.6755    1.7943    0.0000 C   0  0  0  0  0  0  0  0  0  0  0  0
    1.6447    3.0901    0.0000 N   0  0  0  0  0  0  0  0  0  0  0  0
    0.7975    1.5451    0.0000 C   0  0  0  0  0  0  0  0  0  0  0  0
    1.7444    0.0997    0.0000 C   0  0  0  0  0  0  0  0  0  0  0  0
    8.5228    2.3425    0.0000 N   0  0  0  0  0  0  0  0  0  0  0  0
    0.7975    0.5482    0.0000 C   0  0  0  0  0  0  0  0  0  0  0  0
    8.5228    3.3393    0.0000 C   0  0  0  0  0  0  0  0  0  0  0  0
    9.4199    1.8441    0.0000 C   0  0  0  0  0  0  0  0  0  0  0  0
    0.0000    0.0000    0.0000 Cl  0  0  0  0  0  0  0  0  0  0  0  0
    9.3202    3.8876    0.0000 C   0  0  0  0  0  0  0  0  0  0  0  0
   10.2672    2.4422    0.0000 C   0  0  0  0  0  0  0  0  0  0  0  0
  1  2  1  0  0  0  0 
  1  3  1  0  0  0  0 
  2  4  1  0  0  0  0 
  2  5  1  0  0  0  0 
  3  6  2  0  0  0  0 
  7  3  1  0  0  0  0 
  4  8  1  0  0  0  0 
  9  6  1  0  0  0  0 
  6 10  1  0  0  0  0 
 11  7  2  0  0  0  0 
  8 12  1  0  0  0  0 
  9 13  2  0  0  0  0 
 14  9  1  0  0  0  0 
 10 15  2  0  0  0  0 
 13 11  1  0  0  0  0 
 12 16  1  0  0  0  0 
 17 14  2  0  0  0  0 
 15 17  1  0  0  0  0 
 16 18  1  0  0  0  0 
 16 19  1  0  0  0  0 
 17 20  1  0  0  0  0 
 18 21  1  0  0  0  0 
 19 22  1  0  0  0  0 
M  END
> <Name>
1,4-Pentanediamine, N(sup 4)-(7-chloro-4-quinolinyl)-N(sup 1),N(sup 1)-diethyl-

> <Source>
NIST2DMolFile

> <Tox>
2.986

> <CAS>
54-05-7

$$$$

  CDK

 12 13  0  0  0  0  0  0  0  0999 V2000
    1.1823   -0.0000    0.0000 C   0  0  0  0  0  0  0  0  0  0  0  0
    1.1162   -1.3323    0.0000 N   0  0  0  0  0  0  0  0  0  0  0  0
    2.1485   -2.1665    0.0000 C   0  0  0  0  0  0  0  0  0  0  0  0
    0.0000   -2.0524    0.0000 C   0  0  0  0  0  0  0  0  0  0  0  0
    3.4328   -1.8244    0.0000 C   0  0  0  0  0  0  0  0  0  0  0  0
    1.6744   -3.4087    0.0000 C   0  0  0  0  0  0  0  0  0  0  0  0
    0.3421   -3.3367    0.0000 C   0  0  0  0  0  0  0  0  0  0  0  0
    3.7748   -0.5401    0.0000 C   0  0  0  0  0  0  0  0  0  0  0  0
    4.3750   -2.7606    0.0000 C   0  0  0  0  0  0  0  0  0  0  0  0
    5.0591   -0.1920    0.0000 C   0  0  0  0  0  0  0  0  0  0  0  0
    5.6592   -2.4185    0.0000 N   0  0  0  0  0  0  0  0  0  0  0  0
    6.0013   -1.1342    0.0000 C   0  0  0  0  0  0  0  0  0  0  0  0
  1  2  1  0  0  0  0 
  2  3  1  0  0  0  0 
  2  4  1  0  0  0  0 
  3  5  1  6  0  0  0 
  3  6  1  0  0  0  0 
  7  4  1  0  0  0  0 
  5  8  2  0  0  0  0 
  5  9  1  0  0  0  0 
  6  7  1  0  0  0  0 
  8 10  1  0  0  0  0 
 11  9  2  0  0  0  0 
 10 12  2  0  0  0  0 
 12 11  1  0  0  0  0 
M  END
> <Name>
Pyridine, 3-(1-methyl-2-pyrrolidinyl)-, (S)- (9CI)

> <Source>
DSSTox2DMolFile

> <Tox>
3.511

> <CAS>
54-11-5

$$$$

  CDK

 21 22  0  0  0  0  0  0  0  0999 V2000
    3.4551   -6.0438    0.0000 C   0  0  0  0  0  0  0  0  0  0  0  0
    2.2999   -5.3699    0.0000 C   0  0  0  0  0  0  0  0  0  0  0  0
    3.4551   -7.3703    0.0000 C   0  0  0  0  0  0  0  0  0  0  0  0
    4.6104   -5.3699    0.0000 C   0  0  0  0  0  0  0  0  0  0  0  0
    1.1553   -6.0438    0.0000 C   0  0  0  0  0  0  0  0  0  0  0  0
    2.2999   -4.0435    0.0000 N   0  0  0  0  0  0  0  0  0  0  0  0
    2.2999   -8.0335    0.0000 C   0  0  0  0  0  0  0  0  0  0  0  0
    5.7657   -6.0438    0.0000 O   0  0  0  0  0  0  0  0  0  0  0  0
    4.6104   -4.0435    0.0000 O   0  0  0  0  0  0  0  0  0  0  0  0
    1.1553   -7.3703    0.0000 C   0  0  0  0  0  0  0  0  0  0  0  0
    1.1553   -3.3803    0.0000 C   0  0  0  0  0  0  0  0  0  0  0  0
    2.2999   -9.3706    0.0000 S   0  0  0  0  0  0  0  0  0  0  0  0
    0.0000   -8.0335    0.0000 Cl  0  0  0  0  0  0  0  0  0  0  0  0
    1.1553   -2.0431    0.0000 C   0  0  0  0  0  0  0  0  0  0  0  0
    2.2999  -10.6971    0.0000 N   0  0  0  0  0  0  0  0  0  0  0  0
    0.9734   -9.3706    0.0000 O   0  0  0  0  0  0  0  0  0  0  0  0
    3.6370   -9.3706    0.0000 O   0  0  0  0  0  0  0  0  0  0  0  0
    2.2250   -1.2623    0.0000 C   0  0  0  0  0  0  0  0  0  0  0  0
    0.0749   -1.2623    0.0000 O   0  0  0  0  0  0  0  0  0  0  0  0
    1.8185   -0.0000    0.0000 C   0  0  0  0  0  0  0  0  0  0  0  0
    0.4921   -0.0000    0.0000 C   0  0  0  0  0  0  0  0  0  0  0  0
  1  2  1  0  0  0  0 
  1  3  2  0  0  0  0 
  1  4  1  0  0  0  0 
  2  5  2  0  0  0  0 
  2  6  1  0  0  0  0 
  7  3  1  0  0  0  0 
  4  8  1  0  0  0  0 
  4  9  2  0  0  0  0 
  5 10  1  0  0  0  0 
  6 11  1  0  0  0  0 
 10  7  2  0  0  0  0 
  7 12  1  0  0  0  0 
 10 13  1  0  0  0  0 
 11 14  1  0  0  0  0 
 12 15  1  0  0  0  0 
 12 16  2  0  0  0  0 
 12 17  2  0  0  0  0 
 14 18  2  0  0  0  0 
 14 19  1  0  0  0  0 
 18 20  1  0  0  0  0 
 21 19  1  0  0  0  0 
 20 21  2  0  0  0  0 
M  END
> <Name>
Benzoic acid, 5-(aminosulfonyl)-4-chloro-2-((2-furanylmethyl)amino)-

> <Source>
DSSTox2DMolFile

> <Tox>
2.105

> <CAS>
54-31-9

$$$$

  CDK

 16 16  0  0  0  0  0  0  0  0999 V2000
    5.1582    1.9723    0.0000 C   0  0  0  0  0  0  0  0  0  0  0  0
    5.1582    3.0343    0.0000 C   0  0  0  0  0  0  0  0  0  0  0  0
    4.2985    1.5171    0.0000 C   0  0  0  0  0  0  0  0  0  0  0  0
    6.0685    1.5171    0.0000 O   0  0  0  0  0  0  0  0  0  0  0  0
    4.2985    3.5400    0.0000 N   0  0  0  0  0  0  0  0  0  0  0  0
    6.0685    3.5400    0.0000 C   0  0  0  0  0  0  0  0  0  0  0  0
    3.4388    1.9723    0.0000 C   0  0  0  0  0  0  0  0  0  0  0  0
    4.2985    0.5057    0.0000 C   0  0  0  0  0  0  0  0  0  0  0  0
    3.4388    3.0343    0.0000 C   0  0  0  0  0  0  0  0  0  0  0  0
    2.6297    1.5171    0.0000 C   0  0  0  0  0  0  0  0  0  0  0  0
    5.1582    0.0000    0.0000 O   0  0  0  0  0  0  0  0  0  0  0  0
    1.7194    1.9723    0.0000 O   0  0  0  0  0  0  0  0  0  0  0  0
    0.8597    1.5171    0.0000 P   0  0  0  0  0  0  0  0  0  0  0  0
    0.0000    1.0114    0.0000 O   0  0  0  0  0  0  0  0  0  0  0  0
    1.3654    0.6574    0.0000 O   0  0  0  0  0  0  0  0  0  0  0  0
    0.3540    2.3263    0.0000 O   0  0  0  0  0  0  0  0  0  0  0  0
  2  1  2  0  0  0  0 
  1  3  1  0  0  0  0 
  1  4  1  0  0  0  0 
  5  2  1  0  0  0  0 
  2  6  1  0  0  0  0 
  3  7  2  0  0  0  0 
  3  8  1  0  0  0  0 
  9  5  2  0  0  0  0 
  7  9  1  0  0  0  0 
  7 10  1  0  0  0  0 
  8 11  2  0  0  0  0 
 10 12  1  0  0  0  0 
 12 13  1  0  0  0  0 
 13 14  1  0  0  0  0 
 13 15  1  0  0  0  0 
 13 16  2  0  0  0  0 
M  END
> <Name>
2-Methyl-3-hydroxy-4-formyl-5-hydroxymethylpyridine-5-calcium phosphate

> <Source>
NIST2DMolFile

> <Tox>
1.622

> <CAS>
54-47-7

$$$$

  CDK

 11 11  0  0  0  0  0  0  0  0999 V2000
    0.0000    1.5041    0.0000 C   0  0  0  0  0  0  0  0  0  0  0  0
    0.8651    2.0090    0.0000 C   0  0  0  0  0  0  0  0  0  0  0  0
    0.0000    0.4995    0.0000 C   0  0  0  0  0  0  0  0  0  0  0  0
    1.7358    1.5041    0.0000 C   0  0  0  0  0  0  0  0  0  0  0  0
    0.8651    0.0000    0.0000 C   0  0  0  0  0  0  0  0  0  0  0  0
    1.7358    0.4995    0.0000 C   0  0  0  0  0  0  0  0  0  0  0  0
    2.5918    2.0090    0.0000 C   0  0  0  0  0  0  0  0  0  0  0  0
    3.4521    1.5095    0.0000 C   0  0  0  0  0  0  0  0  0  0  0  0
    4.3123    2.0146    0.0000 C   0  0  0  0  0  0  0  0  0  0  0  0
    3.4521    0.5105    0.0000 N   0  0  0  0  0  0  0  0  0  0  0  0
    4.3123    0.0111    0.0000 N   0  0  0  0  0  0  0  0  0  0  0  0
  1  2  2  0  0  0  0 
  3  1  1  0  0  0  0 
  2  4  1  0  0  0  0 
  5  3  2  0  0  0  0 
  4  6  2  0  0  0  0 
  4  7  1  0  0  0  0 
  6  5  1  0  0  0  0 
  7  8  1  0  0  0  0 
  8  9  1  0  0  0  0 
  8 10  1  0  0  0  0 
 10 11  1  0  0  0  0 
M  END
> <Name>
Hydrazine, (1-methyl-2-phenylethyl)- (9CI)

> <Source>
NIST2DMolFile

> <Tox>
3.645

> <CAS>
55-52-7

$$$$

  CDK

 18 19  0  0  0  0  0  0  0  0999 V2000
    0.0000   -4.6031    0.0000 C   0  0  0  0  0  0  0  0  0  0  0  0
    0.6591   -3.4550    0.0000 N   0  0  0  0  0  0  0  0  0  0  0  0
    1.9879   -3.4550    0.0000 C   0  0  0  0  0  0  0  0  0  0  0  0
    0.0000   -2.2962    0.0000 C   0  0  0  0  0  0  0  0  0  0  0  0
    2.6577   -2.2962    0.0000 C   0  0  0  0  0  0  0  0  0  0  0  0
    2.6577   -4.6031    0.0000 C   0  0  0  0  0  0  0  0  0  0  0  0
    3.9865   -2.2962    0.0000 C   0  0  0  0  0  0  0  0  0  0  0  0
    3.9865   -4.6031    0.0000 C   0  0  0  0  0  0  0  0  0  0  0  0
    4.6562   -3.4550    0.0000 C   0  0  0  0  0  0  0  0  0  0  0  0
    5.9851   -3.4550    0.0000 N   0  0  0  0  0  0  0  0  0  0  0  0
    6.6442   -2.2962    0.0000 N   0  0  0  0  0  0  0  0  0  0  0  0
    7.9730   -2.2962    0.0000 C   0  0  0  0  0  0  0  0  0  0  0  0
    8.6428   -1.1481    0.0000 C   0  0  0  0  0  0  0  0  0  0  0  0
    8.6428   -3.4550    0.0000 C   0  0  0  0  0  0  0  0  0  0  0  0
    9.9610   -1.1481    0.0000 C   0  0  0  0  0  0  0  0  0  0  0  0
    9.9610   -3.4550    0.0000 C   0  0  0  0  0  0  0  0  0  0  0  0
   10.6307   -2.2962    0.0000 C   0  0  0  0  0  0  0  0  0  0  0  0
   10.6307   -0.0000    0.0000 C   0  0  0  0  0  0  0  0  0  0  0  0
  1  2  1  0  0  0  0 
  2  3  1  0  0  0  0 
  2  4  1  0  0  0  0 
  3  5  2  0  0  0  0 
  3  6  1  0  0  0  0 
  5  7  1  0  0  0  0 
  8  6  2  0  0  0  0 
  7  9  2  0  0  0  0 
  9  8  1  0  0  0  0 
  9 10  1  0  0  0  0 
 10 11  2  0  0  0  0 
 11 12  1  0  0  0  0 
 12 13  2  0  0  0  0 
 12 14  1  0  0  0  0 
 13 15  1  0  0  0  0 
 16 14  2  0  0  0  0 
 15 17  2  0  0  0  0 
 15 18  1  0  0  0  0 
 17 16  1  0  0  0  0 
M  END
> <Name>
Benzenamine, N,N-dimethyl-4-((3-methylphenyl)azo)-

> <Source>
DSSTox2DMolFile

> <Tox>
2.203

> <CAS>
55-80-1

$$$$

  CDK

  9  9  0  0  0  0  0  0  0  0999 V2000
    0.0000   -2.3037    0.0000 C   0  0  0  0  0  0  0  0  0  0  0  0
    1.3315   -2.3037    0.0000 C   0  0  0  0  0  0  0  0  0  0  0  0
    1.9950   -1.1518    0.0000 C   0  0  0  0  0  0  0  0  0  0  0  0
    1.9950   -3.4555    0.0000 N   0  0  0  0  0  0  0  0  0  0  0  0
    3.3265   -1.1518    0.0000 C   0  0  0  0  0  0  0  0  0  0  0  0
    3.3265   -3.4555    0.0000 C   0  0  0  0  0  0  0  0  0  0  0  0
    3.9899   -0.0000    0.0000 O   0  0  0  0  0  0  0  0  0  0  0  0
    3.9899   -2.3037    0.0000 N   0  0  0  0  0  0  0  0  0  0  0  0
    3.9899   -4.6073    0.0000 S   0  0  0  0  0  0  0  0  0  0  0  0
  1  2  1  0  0  0  0 
  2  3  2  0  0  0  0 
  2  4  1  0  0  0  0 
  3  5  1  0  0  0  0 
  6  4  1  0  0  0  0 
  5  7  2  0  0  0  0 
  5  8  1  0  0  0  0 
  8  6  1  0  0  0  0 
  6  9  2  0  0  0  0 
M  END
> <Name>
4(1H)-Pyrimidinone, 2,3-dihydro-6-methyl-2-thioxo-

> <Source>
DSSTox2DMolFile

> <Tox>
1.977

> <CAS>
56-04-2

$$$$

  CDK

  9  8  0  0  0  0  0  0  0  0999 V2000
    4.6099   -0.6638    0.0000 N   0  0  0  0  0  0  0  0  0  0  0  0
    3.4575   -0.0000    0.0000 C   0  0  0  0  0  0  0  0  0  0  0  0
    5.7624   -0.0000    0.0000 C   0  0  0  0  0  0  0  0  0  0  0  0
    2.3050   -0.6638    0.0000 C   0  0  0  0  0  0  0  0  0  0  0  0
    6.9149   -0.6638    0.0000 C   0  0  0  0  0  0  0  0  0  0  0  0
    1.1525   -0.0000    0.0000 C   0  0  0  0  0  0  0  0  0  0  0  0
    8.0674   -0.0000    0.0000 C   0  0  0  0  0  0  0  0  0  0  0  0
    0.0000   -0.6638    0.0000 N   0  0  0  0  0  0  0  0  0  0  0  0
    9.2199   -0.6638    0.0000 N   0  0  0  0  0  0  0  0  0  0  0  0
  1  2  1  0  0  0  0 
  1  3  1  0  0  0  0 
  2  4  1  0  0  0  0 
  3  5  1  0  0  0  0 
  4  6  1  0  0  0  0 
  5  7  1  0  0  0  0 
  6  8  1  0  0  0  0 
  7  9  1  0  0  0  0 
M  END
> <Name>
1,3-Propanediamine, N-(3-aminopropyl)-

> <Source>
DSSTox2DMolFile

> <Tox>
2.250

> <CAS>
56-18-8

$$$$

  CDK

  5  4  0  0  0  0  0  0  0  0999 V2000
    2.3124   -1.3174    0.0000 C   0  0  0  0  0  0  0  0  0  0  0  0
    2.3124   -0.0000    0.0000 O   0  0  0  0  0  0  0  0  0  0  0  0
    3.4669   -1.9900    0.0000 O   0  0  0  0  0  0  0  0  0  0  0  0
    1.1718   -1.9726    0.0000 C   0  0  0  0  0  0  0  0  0  0  0  0
    0.0000   -1.3001    0.0000 N   0  0  0  0  0  0  0  0  0  0  0  0
  1  2  2  0  0  0  0 
  1  3  1  0  0  0  0 
  1  4  1  0  0  0  0 
  5  4  1  0  0  0  0 
M  END
> <Name>
Glycine iron sulphate (1:1)

> <Source>
DSSTox2DMolFile

> <Tox>
0.976

> <CAS>
56-40-6

$$$$

  CDK

 24 27  0  0  0  0  0  0  0  0999 V2000
    0.6589   -3.4475    0.0000 C   0  0  0  0  0  0  0  0  0  0  0  0
    0.0000   -4.6030    0.0000 N   0  0  0  0  0  0  0  0  0  0  0  0
    0.0000   -2.2919    0.0000 C   0  0  0  0  0  0  0  0  0  0  0  0
    1.9864   -3.4475    0.0000 C   0  0  0  0  0  0  0  0  0  0  0  0
    0.6589   -5.7394    0.0000 C   0  0  0  0  0  0  0  0  0  0  0  0
    0.6589   -1.1269    0.0000 C   0  0  0  0  0  0  0  0  0  0  0  0
    2.6644   -4.6030    0.0000 C   0  0  0  0  0  0  0  0  0  0  0  0
    2.6644   -2.2919    0.0000 C   0  0  0  0  0  0  0  0  0  0  0  0
    1.9864   -5.7394    0.0000 C   0  0  0  0  0  0  0  0  0  0  0  0
    1.9864   -1.1269    0.0000 C   0  0  0  0  0  0  0  0  0  0  0  0
    3.8008   -5.2524    0.0000 C   0  0  0  0  0  0  0  0  0  0  0  0
    2.6644   -0.0000    0.0000 O   0  0  0  0  0  0  0  0  0  0  0  0
    4.9468   -4.6030    0.0000 C   0  0  0  0  0  0  0  0  0  0  0  0
    3.8008   -6.5702    0.0000 O   0  0  0  0  0  0  0  0  0  0  0  0
    3.9918   -0.0000    0.0000 C   0  0  0  0  0  0  0  0  0  0  0  0
    4.9468   -3.2660    0.0000 C   0  0  0  0  0  0  0  0  0  0  0  0
    6.1023   -5.2524    0.0000 N   0  0  0  0  0  0  0  0  0  0  0  0
    6.1023   -2.5975    0.0000 C   0  0  0  0  0  0  0  0  0  0  0  0
    7.2387   -4.6030    0.0000 C   0  0  0  0  0  0  0  0  0  0  0  0
    5.4434   -4.0873    0.0000 C   0  0  0  0  0  0  0  0  0  0  0  0
    7.2387   -3.2660    0.0000 C   0  0  0  0  0  0  0  0  0  0  0  0
    6.7803   -3.7340    0.0000 C   0  0  0  0  0  0  0  0  0  0  0  0
    8.3943   -2.5975    0.0000 C   0  0  0  0  0  0  0  0  0  0  0  0
    9.5498   -3.2660    0.0000 C   0  0  0  0  0  0  0  0  0  0  0  0
  1  2  1  0  0  0  0 
  1  3  1  0  0  0  0 
  1  4  2  0  0  0  0 
  2  5  2  0  0  0  0 
  3  6  2  0  0  0  0 
  4  7  1  0  0  0  0 
  4  8  1  0  0  0  0 
  5  9  1  0  0  0  0 
  6 10  1  0  0  0  0 
  7  9  2  0  0  0  0 
  7 11  1  0  0  0  0 
  8 10  2  0  0  0  0 
 10 12  1  0  0  0  0 
 13 11  1  0  0  0  0 
 11 14  1  1  0  0  0 
 12 15  1  0  0  0  0 
 16 13  1  0  0  0  0 
 13 17  1  0  0  0  0 
 16 18  1  0  0  0  0 
 17 19  1  0  0  0  0 
 17 20  1  6  0  0  0 
 18 21  1  0  0  0  0 
 18 22  1  6  0  0  0 
 21 19  1  0  0  0  0 
 22 20  1  0  0  0  0 
 21 23  1  1  0  0  0 
 24 23  2  0  0  0  0 
M  END
> <Name>
Cinchonan-9-ol, 6'-methoxy-, (9S)-

> <Source>
DSSTox2DMolFile

> <Tox>
3.091

> <CAS>
56-54-2

$$$$

  CDK

 14 16  0  0  0  0  0  0  0  0999 V2000
    4.4719   -3.1448    0.0000 O   0  0  0  0  0  0  0  0  0  0  0  0
    3.1448   -3.1448    0.0000 P   0  0  0  0  0  0  0  0  0  0  0  0
    3.1448   -4.4719    0.0000 N   0  0  0  0  0  0  0  0  0  0  0  0
    1.8177   -3.1448    0.0000 N   0  0  0  0  0  0  0  0  0  0  0  0
    3.1448   -1.8177    0.0000 N   0  0  0  0  0  0  0  0  0  0  0  0
    3.8115   -5.6229    0.0000 C   0  0  0  0  0  0  0  0  0  0  0  0
    2.4781   -5.6229    0.0000 C   0  0  0  0  0  0  0  0  0  0  0  0
    0.6667   -3.8115    0.0000 C   0  0  0  0  0  0  0  0  0  0  0  0
    0.6667   -2.4781    0.0000 C   0  0  0  0  0  0  0  0  0  0  0  0
    2.4781   -0.6667    0.0000 C   0  0  0  0  0  0  0  0  0  0  0  0
    3.8115   -0.6667    0.0000 C   0  0  0  0  0  0  0  0  0  0  0  0
    4.9625   -6.2896    0.0000 C   0  0  0  0  0  0  0  0  0  0  0  0
    0.0000   -4.9625    0.0000 C   0  0  0  0  0  0  0  0  0  0  0  0
    1.3271   -0.0000    0.0000 C   0  0  0  0  0  0  0  0  0  0  0  0
  1  2  2  0  0  0  0 
  2  3  1  0  0  0  0 
  2  4  1  0  0  0  0 
  2  5  1  0  0  0  0 
  3  6  1  0  0  0  0 
  3  7  1  0  0  0  0 
  4  8  1  0  0  0  0 
  4  9  1  0  0  0  0 
  5 10  1  0  0  0  0 
  5 11  1  0  0  0  0 
  6  7  1  0  0  0  0 
  6 12  1  0  0  0  0 
  8  9  1  0  0  0  0 
  8 13  1  0  0  0  0 
 10 11  1  0  0  0  0 
 10 14  1  0  0  0  0 
M  END
> <Name>
Aziridine, 1,1',1''-phosphinylidynetris(2-methyl-

> <Source>
DSSTox2DMolFile

> <Tox>
3.199

> <CAS>
57-39-6

$$$$

  CDK

 18 19  0  0  0  0  0  0  0  0999 V2000
    4.7270   -6.2557    0.0000 C   0  0  0  0  0  0  0  0  0  0  0  0
    3.8746   -5.2413    0.0000 C   0  0  0  0  0  0  0  0  0  0  0  0
    6.0373   -6.0232    0.0000 N   0  0  0  0  0  0  0  0  0  0  0  0
    4.3255   -3.9873    0.0000 C   0  0  0  0  0  0  0  0  0  0  0  0
    6.4952   -4.7763    0.0000 C   0  0  0  0  0  0  0  0  0  0  0  0
    6.8897   -7.0447    0.0000 C   0  0  0  0  0  0  0  0  0  0  0  0
    3.0222   -3.7548    0.0000 C   0  0  0  0  0  0  0  0  0  0  0  0
    4.3255   -2.6559    0.0000 C   0  0  0  0  0  0  0  0  0  0  0  0
    5.6358   -3.7548    0.0000 C   0  0  0  0  0  0  0  0  0  0  0  0
    2.5643   -2.5079    0.0000 O   0  0  0  0  0  0  0  0  0  0  0  0
    2.1627   -4.7763    0.0000 O   0  0  0  0  0  0  0  0  0  0  0  0
    3.1772   -1.9937    0.0000 C   0  0  0  0  0  0  0  0  0  0  0  0
    5.4808   -1.9937    0.0000 C   0  0  0  0  0  0  0  0  0  0  0  0
    0.8524   -4.5439    0.0000 C   0  0  0  0  0  0  0  0  0  0  0  0
    3.1772   -0.6622    0.0000 C   0  0  0  0  0  0  0  0  0  0  0  0
    5.4808   -0.6622    0.0000 C   0  0  0  0  0  0  0  0  0  0  0  0
    0.0000   -5.5653    0.0000 C   0  0  0  0  0  0  0  0  0  0  0  0
    4.3255   -0.0000    0.0000 C   0  0  0  0  0  0  0  0  0  0  0  0
  1  2  1  0  0  0  0 
  1  3  1  0  0  0  0 
  2  4  1  0  0  0  0 
  5  3  1  0  0  0  0 
  3  6  1  0  0  0  0 
  4  7  1  0  0  0  0 
  4  8  1  0  0  0  0 
  4  9  1  0  0  0  0 
  9  5  1  0  0  0  0 
  7 10  2  0  0  0  0 
  7 11  1  0  0  0  0 
  8 12  2  0  0  0  0 
  8 13  1  0  0  0  0 
 11 14  1  0  0  0  0 
 12 15  1  0  0  0  0 
 16 13  2  0  0  0  0 
 14 17  1  0  0  0  0 
 15 18  2  0  0  0  0 
 18 16  1  0  0  0  0 
M  END
> <Name>
4-Piperidinecarboxylic acid, 1-methyl-4-phenyl-, ethyl ester

> <Source>
DSSTox2DMolFile

> <Tox>
3.184

> <CAS>
57-42-1

$$$$

  CDK

 23 24  0  0  0  0  0  0  0  0999 V2000
    6.2931   -2.0154    0.0000 C   0  0  0  0  0  0  0  0  0  0  0  0
    7.2597   -2.8998    0.0000 C   0  0  0  0  0  0  0  0  0  0  0  0
    6.8278   -0.8226    0.0000 O   0  0  0  0  0  0  0  0  0  0  0  0
    5.6041   -3.4036    0.0000 O   0  0  0  0  0  0  0  0  0  0  0  0
    5.0592   -1.6144    0.0000 C   0  0  0  0  0  0  0  0  0  0  0  0
    8.3908   -2.2519    0.0000 C   0  0  0  0  0  0  0  0  0  0  0  0
    7.1157   -4.2057    0.0000 O   0  0  0  0  0  0  0  0  0  0  0  0
    8.1234   -0.9666    0.0000 C   0  0  0  0  0  0  0  0  0  0  0  0
    3.9383   -3.4345    0.0000 C   0  0  0  0  0  0  0  0  0  0  0  0
    4.8227   -0.4524    0.0000 O   0  0  0  0  0  0  0  0  0  0  0  0
    9.5939   -2.7866    0.0000 O   0  0  0  0  0  0  0  0  0  0  0  0
    9.0078   -0.0000    0.0000 C   0  0  0  0  0  0  0  0  0  0  0  0
    3.2802   -4.5656    0.0000 C   0  0  0  0  0  0  0  0  0  0  0  0
    3.2802   -2.2931    0.0000 O   0  0  0  0  0  0  0  0  0  0  0  0
   10.2828   -0.2674    0.0000 O   0  0  0  0  0  0  0  0  0  0  0  0
    1.9640   -4.5656    0.0000 C   0  0  0  0  0  0  0  0  0  0  0  0
    3.9280   -5.7070    0.0000 O   0  0  0  0  0  0  0  0  0  0  0  0
    1.9743   -2.2931    0.0000 C   0  0  0  0  0  0  0  0  0  0  0  0
    1.3059   -5.7070    0.0000 O   0  0  0  0  0  0  0  0  0  0  0  0
    1.3059   -3.4242    0.0000 C   0  0  0  0  0  0  0  0  0  0  0  0
    1.3162   -1.1620    0.0000 C   0  0  0  0  0  0  0  0  0  0  0  0
    0.0000   -3.4242    0.0000 O   0  0  0  0  0  0  0  0  0  0  0  0
    0.0000   -1.1517    0.0000 O   0  0  0  0  0  0  0  0  0  0  0  0
  1  2  1  0  0  0  0 
  1  3  1  0  0  0  0 
  1  4  1  6  0  0  0 
  1  5  1  1  0  0  0 
  2  6  1  0  0  0  0 
  2  7  1  6  0  0  0 
  3  8  1  0  0  0  0 
  9  4  1  6  0  0  0 
  5 10  1  0  0  0  0 
  6 11  1  1  0  0  0 
  6  8  1  0  0  0  0 
  8 12  1  6  0  0  0 
  9 13  1  0  0  0  0 
  9 14  1  0  0  0  0 
 12 15  1  0  0  0  0 
 13 16  1  0  0  0  0 
 13 17  1  6  0  0  0 
 14 18  1  0  0  0  0 
 16 19  1  1  0  0  0 
 16 20  1  0  0  0  0 
 20 18  1  0  0  0  0 
 18 21  1  1  0  0  0 
 20 22  1  6  0  0  0 
 21 23  1  0  0  0  0 
M  END
> <Name>
alpha-D-Glucopyranoside, beta-D-fructofuranosyl

> <Source>
DSSTox2DMolFile

> <Tox>
1.062

> <CAS>
57-50-1

$$$$

  CDK

  5  4  0  0  0  0  0  0  0  0999 V2000
    3.4567   -1.9945    0.0000 C   0  0  0  0  0  0  0  0  0  0  0  0
    2.3056   -1.3308    0.0000 C   0  0  0  0  0  0  0  0  0  0  0  0
    1.1511   -1.9945    0.0000 C   0  0  0  0  0  0  0  0  0  0  0  0
    2.3056   -0.0000    0.0000 O   0  0  0  0  0  0  0  0  0  0  0  0
    0.0000   -1.3308    0.0000 O   0  0  0  0  0  0  0  0  0  0  0  0
  1  2  1  0  0  0  0 
  2  3  1  0  0  0  0 
  2  4  1  0  0  0  0 
  3  5  1  0  0  0  0 
M  END
> <Name>
1,2-Propylene glycol

> <Source>
DSSTox2DMolFile

> <Tox>
0.580

> <CAS>
57-55-6

$$$$

  CDK

 40 42  0  0  0  0  0  0  0  0999 V2000
    5.1025   -2.8624    0.0000 C   0  0  0  0  0  0  0  0  0  0  0  0
    6.4023   -2.8624    0.0000 O   0  0  0  0  0  0  0  0  0  0  0  0
    4.6877   -4.1069    0.0000 C   0  0  0  0  0  0  0  0  0  0  0  0
    4.2452   -1.8115    0.0000 C   0  0  0  0  0  0  0  0  0  0  0  0
    6.8171   -4.1069    0.0000 C   0  0  0  0  0  0  0  0  0  0  0  0
    5.7524   -4.8951    0.0000 C   0  0  0  0  0  0  0  0  0  0  0  0
    3.4431   -4.6600    0.0000 O   0  0  0  0  0  0  0  0  0  0  0  0
    3.6782   -3.2081    0.0000 C   0  0  0  0  0  0  0  0  0  0  0  0
    7.9787   -3.8027    0.0000 O   0  0  0  0  0  0  0  0  0  0  0  0
    5.7524   -6.2225    0.0000 O   0  0  0  0  0  0  0  0  0  0  0  0
    2.4199   -3.6091    0.0000 O   0  0  0  0  0  0  0  0  0  0  0  0
    9.2232   -4.2037    0.0000 C   0  0  0  0  0  0  0  0  0  0  0  0
    4.6047   -6.8863    0.0000 C   0  0  0  0  0  0  0  0  0  0  0  0
    9.2232   -5.5588    0.0000 C   0  0  0  0  0  0  0  0  0  0  0  0
   10.3571   -3.5538    0.0000 C   0  0  0  0  0  0  0  0  0  0  0  0
    4.6047   -8.1999    0.0000 C   0  0  0  0  0  0  0  0  0  0  0  0
    3.4431   -6.2087    0.0000 O   0  0  0  0  0  0  0  0  0  0  0  0
   10.3571   -6.2087    0.0000 C   0  0  0  0  0  0  0  0  0  0  0  0
    8.0755   -6.2087    0.0000 O   0  0  0  0  0  0  0  0  0  0  0  0
   11.5048   -4.2037    0.0000 C   0  0  0  0  0  0  0  0  0  0  0  0
   10.3571   -1.9774    0.0000 N   0  0  0  0  0  0  0  0  0  0  0  0
    3.4293   -8.8360    0.0000 C   0  0  0  0  0  0  0  0  0  0  0  0
    5.7386   -8.8775    0.0000 N   0  0  0  0  0  0  0  0  0  0  0  0
    2.3093   -6.8725    0.0000 C   0  0  0  0  0  0  0  0  0  0  0  0
   11.5048   -5.5588    0.0000 C   0  0  0  0  0  0  0  0  0  0  0  0
   10.3571   -7.5362    0.0000 O   0  0  0  0  0  0  0  0  0  0  0  0
   12.6525   -3.5538    0.0000 O   0  0  0  0  0  0  0  0  0  0  0  0
    9.1955   -1.3275    0.0000 C   0  0  0  0  0  0  0  0  0  0  0  0
    2.3093   -8.1999    0.0000 C   0  0  0  0  0  0  0  0  0  0  0  0
    3.4293  -10.2050    0.0000 O   0  0  0  0  0  0  0  0  0  0  0  0
    5.7386  -10.2050    0.0000 C   0  0  0  0  0  0  0  0  0  0  0  0
    1.1615   -6.2087    0.0000 C   0  0  0  0  0  0  0  0  0  0  0  0
   12.6525   -6.2087    0.0000 N   0  0  0  0  0  0  0  0  0  0  0  0
    9.1955   -0.0000    0.0000 N   0  0  0  0  0  0  0  0  0  0  0  0
    8.0755   -2.0050    0.0000 N   0  0  0  0  0  0  0  0  0  0  0  0
    1.1339   -8.8360    0.0000 O   0  0  0  0  0  0  0  0  0  0  0  0
    0.0000   -6.8725    0.0000 O   0  0  0  0  0  0  0  0  0  0  0  0
   12.6525   -7.5362    0.0000 C   0  0  0  0  0  0  0  0  0  0  0  0
   13.8279   -8.1999    0.0000 N   0  0  0  0  0  0  0  0  0  0  0  0
   11.5048   -8.1999    0.0000 N   0  0  0  0  0  0  0  0  0  0  0  0
  1  2  1  0  0  0  0 
  1  3  1  0  0  0  0 
  1  4  1  6  0  0  0 
  2  5  1  0  0  0  0 
  3  6  1  0  0  0  0 
  3  7  1  6  0  0  0 
  3  8  1  1  0  0  0 
  5  6  1  0  0  0  0 
  5  9  1  1  0  0  0 
  6 10  1  6  0  0  0 
  8 11  2  0  0  0  0 
 12  9  1  6  0  0  0 
 13 10  1  1  0  0  0 
 14 12  1  0  0  0  0 
 12 15  1  0  0  0  0 
 13 16  1  0  0  0  0 
 13 17  1  0  0  0  0 
 18 14  1  0  0  0  0 
 14 19  1  1  0  0  0 
 20 15  1  0  0  0  0 
 15 21  1  1  0  0  0 
 16 22  1  0  0  0  0 
 16 23  1  1  0  0  0 
 17 24  1  0  0  0  0 
 18 25  1  0  0  0  0 
 18 26  1  6  0  0  0 
 25 20  1  0  0  0  0 
 20 27  1  6  0  0  0 
 21 28  1  0  0  0  0 
 22 29  1  0  0  0  0 
 22 30  1  6  0  0  0 
 23 31  1  0  0  0  0 
 24 29  1  0  0  0  0 
 24 32  1  6  0  0  0 
 25 33  1  1  0  0  0 
 28 34  1  0  0  0  0 
 28 35  2  0  0  0  0 
 29 36  1  1  0  0  0 
 32 37  1  0  0  0  0 
 33 38  1  0  0  0  0 
 38 39  2  0  0  0  0 
 38 40  1  0  0  0  0 
M  END
> <Name>
D-Streptamine, O-2-deoxy-2-(methylamino)-alpha-L-glucopyranosyl-(1-2)-O-5-deoxy-3-C-formyl-alpha-L-lyxofuranosyl-(1-4)-N,N'-bis(aminoiminomethyl)-

> <Source>
DSSTox2DMolFile

> <Tox>
1.810

> <CAS>
57-92-1

$$$$

  CDK

 17 18  0  0  0  0  0  0  0  0999 V2000
    4.6046   -0.0000    0.0000 N   0  0  0  0  0  0  0  0  0  0  0  0
    3.4595   -0.6613    0.0000 C   0  0  0  0  0  0  0  0  0  0  0  0
    3.4595   -1.9918    0.0000 C   0  0  0  0  0  0  0  0  0  0  0  0
    2.3063   -0.0000    0.0000 N   0  0  0  0  0  0  0  0  0  0  0  0
    2.3063   -2.6611    0.0000 C   0  0  0  0  0  0  0  0  0  0  0  0
    4.6046   -2.6611    0.0000 C   0  0  0  0  0  0  0  0  0  0  0  0
    1.1532   -0.6613    0.0000 C   0  0  0  0  0  0  0  0  0  0  0  0
    1.1532   -1.9918    0.0000 N   0  0  0  0  0  0  0  0  0  0  0  0
    2.3063   -3.9917    0.0000 C   0  0  0  0  0  0  0  0  0  0  0  0
    5.7578   -1.9918    0.0000 C   0  0  0  0  0  0  0  0  0  0  0  0
    4.6046   -3.9917    0.0000 C   0  0  0  0  0  0  0  0  0  0  0  0
    0.0000   -0.0000    0.0000 N   0  0  0  0  0  0  0  0  0  0  0  0
    1.1532   -4.6530    0.0000 C   0  0  0  0  0  0  0  0  0  0  0  0
    6.9109   -2.6611    0.0000 C   0  0  0  0  0  0  0  0  0  0  0  0
    5.7578   -4.6530    0.0000 C   0  0  0  0  0  0  0  0  0  0  0  0
    6.9109   -3.9917    0.0000 C   0  0  0  0  0  0  0  0  0  0  0  0
    8.0641   -4.6530    0.0000 Cl  0  0  0  0  0  0  0  0  0  0  0  0
  1  2  1  0  0  0  0 
  2  3  2  0  0  0  0 
  2  4  1  0  0  0  0 
  3  5  1  0  0  0  0 
  3  6  1  0  0  0  0 
  7  4  2  0  0  0  0 
  5  8  2  0  0  0  0 
  5  9  1  0  0  0  0 
  6 10  2  0  0  0  0 
  6 11  1  0  0  0  0 
  8  7  1  0  0  0  0 
  7 12  1  0  0  0  0 
  9 13  1  0  0  0  0 
 10 14  1  0  0  0  0 
 15 11  2  0  0  0  0 
 14 16  2  0  0  0  0 
 16 15  1  0  0  0  0 
 16 17  1  0  0  0  0 
M  END
> <Name>
Pyrimidine, 2,4-diamino-5-(p-chlorophenyl)-6-ethyl-

> <Source>
DSSTox2DMolFile

> <Tox>
2.752

> <CAS>
58-14-0

$$$$

  CDK

 36 39  0  0  0  0  0  0  0  0999 V2000
    4.3837    4.9379    0.0000 C   0  0  0  0  0  0  0  0  0  0  0  0
    3.4767    4.4844    0.0000 N   0  0  0  0  0  0  0  0  0  0  0  0
    5.2402    4.4844    0.0000 C   0  0  0  0  0  0  0  0  0  0  0  0
    4.3837    5.9456    0.0000 N   0  0  0  0  0  0  0  0  0  0  0  0
    3.4767    3.5271    0.0000 C   0  0  0  0  0  0  0  0  0  0  0  0
    5.2402    3.5271    0.0000 C   0  0  0  0  0  0  0  0  0  0  0  0
    6.0464    4.9379    0.0000 N   0  0  0  0  0  0  0  0  0  0  0  0
    3.4767    6.4495    0.0000 C   0  0  0  0  0  0  0  0  0  0  0  0
    5.2402    6.4495    0.0000 C   0  0  0  0  0  0  0  0  0  0  0  0
    4.3837    3.0232    0.0000 N   0  0  0  0  0  0  0  0  0  0  0  0
    2.6201    2.9728    0.0000 N   0  0  0  0  0  0  0  0  0  0  0  0
    6.0464    3.0232    0.0000 C   0  0  0  0  0  0  0  0  0  0  0  0
    6.9534    4.4844    0.0000 C   0  0  0  0  0  0  0  0  0  0  0  0
    3.4767    7.4572    0.0000 C   0  0  0  0  0  0  0  0  0  0  0  0
    5.2402    7.4572    0.0000 C   0  0  0  0  0  0  0  0  0  0  0  0
    1.7635    3.5271    0.0000 C   0  0  0  0  0  0  0  0  0  0  0  0
    2.6201    2.0155    0.0000 C   0  0  0  0  0  0  0  0  0  0  0  0
    6.9534    3.5271    0.0000 N   0  0  0  0  0  0  0  0  0  0  0  0
    6.0464    2.0155    0.0000 N   0  0  0  0  0  0  0  0  0  0  0  0
    7.8100    4.9883    0.0000 N   0  0  0  0  0  0  0  0  0  0  0  0
    4.3837    7.9611    0.0000 C   0  0  0  0  0  0  0  0  0  0  0  0
    0.9070    2.9728    0.0000 C   0  0  0  0  0  0  0  0  0  0  0  0
    3.4767    1.4612    0.0000 C   0  0  0  0  0  0  0  0  0  0  0  0
    6.9534    1.5116    0.0000 C   0  0  0  0  0  0  0  0  0  0  0  0
    5.2402    1.5116    0.0000 C   0  0  0  0  0  0  0  0  0  0  0  0
    7.8100    5.9960    0.0000 C   0  0  0  0  0  0  0  0  0  0  0  0
    8.6665    4.4844    0.0000 C   0  0  0  0  0  0  0  0  0  0  0  0
    0.0000    3.5271    0.0000 O   0  0  0  0  0  0  0  0  0  0  0  0
    3.4767    0.4535    0.0000 O   0  0  0  0  0  0  0  0  0  0  0  0
    6.9534    0.5039    0.0000 C   0  0  0  0  0  0  0  0  0  0  0  0
    5.2402    0.5039    0.0000 C   0  0  0  0  0  0  0  0  0  0  0  0
    8.6665    6.4999    0.0000 C   0  0  0  0  0  0  0  0  0  0  0  0
    8.6665    3.5271    0.0000 C   0  0  0  0  0  0  0  0  0  0  0  0
    6.0464    0.0000    0.0000 C   0  0  0  0  0  0  0  0  0  0  0  0
    8.6665    7.5076    0.0000 O   0  0  0  0  0  0  0  0  0  0  0  0
    9.5735    3.0232    0.0000 O   0  0  0  0  0  0  0  0  0  0  0  0
  2  1  2  0  0  0  0 
  1  3  1  0  0  0  0 
  1  4  1  0  0  0  0 
  5  2  1  0  0  0  0 
  6  3  2  0  0  0  0 
  3  7  1  0  0  0  0 
  4  8  1  0  0  0  0 
  9  4  1  0  0  0  0 
 10  5  2  0  0  0  0 
  5 11  1  0  0  0  0 
  6 10  1  0  0  0  0 
 12  6  1  0  0  0  0 
  7 13  2  0  0  0  0 
  8 14  1  0  0  0  0 
 15  9  1  0  0  0  0 
 11 16  1  0  0  0  0 
 11 17  1  0  0  0  0 
 18 12  2  0  0  0  0 
 12 19  1  0  0  0  0 
 13 18  1  0  0  0  0 
 13 20  1  0  0  0  0 
 14 21  1  0  0  0  0 
 21 15  1  0  0  0  0 
 16 22  1  0  0  0  0 
 17 23  1  0  0  0  0 
 19 24  1  0  0  0  0 
 25 19  1  0  0  0  0 
 20 26  1  0  0  0  0 
 20 27  1  0  0  0  0 
 22 28  1  0  0  0  0 
 23 29  1  0  0  0  0 
 24 30  1  0  0  0  0 
 31 25  1  0  0  0  0 
 26 32  1  0  0  0  0 
 27 33  1  0  0  0  0 
 30 34  1  0  0  0  0 
 34 31  1  0  0  0  0 
 32 35  1  0  0  0  0 
 33 36  1  0  0  0  0 
M  END
> <Name>
Ethanol, 2,2',2'',2'''-((4,8-di-1-piperidinylpyrimido(5,4-d)pyrimidine-2,6-diyl)dinitrilo)tetrakis-

> <Source>
NIST2DMolFile

> <Tox>
1.779

> <CAS>
58-32-2

$$$$

  CDK

 13 14  0  0  0  0  0  0  0  0999 V2000
    2.3264   -3.9944    0.0000 N   0  0  0  0  0  0  0  0  0  0  0  0
    3.4677   -3.3250    0.0000 C   0  0  0  0  0  0  0  0  0  0  0  0
    1.1687   -3.3250    0.0000 C   0  0  0  0  0  0  0  0  0  0  0  0
    2.3264   -5.3277    0.0000 C   0  0  0  0  0  0  0  0  0  0  0  0
    3.4677   -2.0082    0.0000 C   0  0  0  0  0  0  0  0  0  0  0  0
    4.7186   -3.7420    0.0000 N   0  0  0  0  0  0  0  0  0  0  0  0
    1.1687   -2.0082    0.0000 N   0  0  0  0  0  0  0  0  0  0  0  0
    0.0000   -4.0108    0.0000 O   0  0  0  0  0  0  0  0  0  0  0  0
    4.7186   -1.5912    0.0000 N   0  0  0  0  0  0  0  0  0  0  0  0
    2.3264   -1.3333    0.0000 C   0  0  0  0  0  0  0  0  0  0  0  0
    5.4868   -2.6501    0.0000 C   0  0  0  0  0  0  0  0  0  0  0  0
    0.0000   -1.3168    0.0000 C   0  0  0  0  0  0  0  0  0  0  0  0
    2.3264   -0.0000    0.0000 O   0  0  0  0  0  0  0  0  0  0  0  0
  1  2  1  0  0  0  0 
  1  3  1  0  0  0  0 
  1  4  1  0  0  0  0 
  2  5  2  0  0  0  0 
  2  6  1  0  0  0  0 
  7  3  1  0  0  0  0 
  3  8  2  0  0  0  0 
  5  9  1  0  0  0  0 
  5 10  1  0  0  0  0 
  6 11  2  0  0  0  0 
  7 10  1  0  0  0  0 
  7 12  1  0  0  0  0 
  9 11  1  0  0  0  0 
 10 13  2  0  0  0  0 
M  END
> <Name>
1H-Purine-2,6-dione, 3,7-dihydro-1,3-dimethyl-

> <Source>
DSSTox2DMolFile

> <Tox>
2.903

> <CAS>
58-55-9

$$$$

  CDK

 17 18  0  0  0  0  0  0  0  0999 V2000
    5.7383   -1.1849    0.0000 S   0  0  0  0  0  0  0  0  0  0  0  0
    4.5948   -1.8600    0.0000 C   0  0  0  0  0  0  0  0  0  0  0  0
    6.8888   -1.8462    0.0000 N   0  0  0  0  0  0  0  0  0  0  0  0
    5.1115   -0.0482    0.0000 O   0  0  0  0  0  0  0  0  0  0  0  0
    6.3928   -0.0344    0.0000 O   0  0  0  0  0  0  0  0  0  0  0  0
    3.4444   -1.1849    0.0000 C   0  0  0  0  0  0  0  0  0  0  0  0
    4.5948   -3.1757    0.0000 C   0  0  0  0  0  0  0  0  0  0  0  0
    6.8888   -3.1895    0.0000 C   0  0  0  0  0  0  0  0  0  0  0  0
    2.3077   -1.8462    0.0000 C   0  0  0  0  0  0  0  0  0  0  0  0
    3.4444   -3.8439    0.0000 C   0  0  0  0  0  0  0  0  0  0  0  0
    5.7383   -3.8439    0.0000 N   0  0  0  0  0  0  0  0  0  0  0  0
    1.1504   -1.1573    0.0000 S   0  0  0  0  0  0  0  0  0  0  0  0
    2.3077   -3.1895    0.0000 C   0  0  0  0  0  0  0  0  0  0  0  0
    1.8393   -0.0000    0.0000 O   0  0  0  0  0  0  0  0  0  0  0  0
    0.4615   -2.3077    0.0000 O   0  0  0  0  0  0  0  0  0  0  0  0
    0.0000   -0.4684    0.0000 N   0  0  0  0  0  0  0  0  0  0  0  0
    1.1504   -3.8784    0.0000 Cl  0  0  0  0  0  0  0  0  0  0  0  0
  1  2  1  0  0  0  0 
  1  3  1  0  0  0  0 
  1  4  2  0  0  0  0 
  1  5  2  0  0  0  0 
  2  6  1  0  0  0  0 
  2  7  2  0  0  0  0 
  3  8  1  0  0  0  0 
  9  6  2  0  0  0  0 
  7 10  1  0  0  0  0 
  7 11  1  0  0  0  0 
 11  8  2  0  0  0  0 
 12  9  1  0  0  0  0 
  9 13  1  0  0  0  0 
 13 10  2  0  0  0  0 
 12 14  2  0  0  0  0 
 12 15  2  0  0  0  0 
 12 16  1  0  0  0  0 
 13 17  1  0  0  0  0 
M  END
> <Name>
2H-1,2,4-Benzothiadiazine-7-sulfonamide, 6-chloro-, 1,1-dioxide

> <Source>
DSSTox2DMolFile

> <Tox>
1.471

> <CAS>
58-94-6

$$$$

  CDK

 21 23  0  0  0  0  0  0  0  0999 V2000
    0.0000    0.0000    0.0000 N   0  0  0  0  0  0  0  0  0  0  0  0
    0.5000    1.5400   -0.1800 S   0  0  0  0  0  0  0  0  0  0  0  0
   -0.9200   -0.5200   -0.8600 C   0  0  0  0  0  0  0  0  0  0  0  0
   -0.6600    2.3800   -0.1600 O   0  0  0  0  0  0  0  0  0  0  0  0
    1.4400    1.8000    0.9200 O   0  0  0  0  0  0  0  0  0  0  0  0
    1.3400    1.7800   -1.6600 C   0  0  0  0  0  0  0  0  0  0  0  0
   -1.6600    0.3400   -1.6400 N   0  0  0  0  0  0  0  0  0  0  0  0
   -1.1000   -1.9000   -0.9600 C   0  0  0  0  0  0  0  0  0  0  0  0
    0.6200    2.1600   -2.8000 C   0  0  0  0  0  0  0  0  0  0  0  0
    2.7200    1.6000   -1.7200 C   0  0  0  0  0  0  0  0  0  0  0  0
   -2.6000   -0.1600   -2.5200 C   0  0  0  0  0  0  0  0  0  0  0  0
   -2.0200   -2.4200   -1.8400 N   0  0  0  0  0  0  0  0  0  0  0  0
    1.3000    2.3600   -4.0200 C   0  0  0  0  0  0  0  0  0  0  0  0
    3.4000    1.8000   -2.9400 C   0  0  0  0  0  0  0  0  0  0  0  0
   -2.7800   -1.5800   -2.6200 C   0  0  0  0  0  0  0  0  0  0  0  0
   -3.3600    0.7000   -3.3200 C   0  0  0  0  0  0  0  0  0  0  0  0
    2.6800    2.1800   -4.1000 C   0  0  0  0  0  0  0  0  0  0  0  0
   -3.7200   -2.1000   -3.5200 C   0  0  0  0  0  0  0  0  0  0  0  0
   -4.3000    0.1800   -4.2200 C   0  0  0  0  0  0  0  0  0  0  0  0
    3.3400    2.3600   -5.2800 N   0  0  0  0  0  0  0  0  0  0  0  0
   -4.4800   -1.2200   -4.3200 C   0  0  0  0  0  0  0  0  0  0  0  0
  1  2  1  0  0  0  0 
  1  3  1  0  0  0  0 
  2  4  2  0  0  0  0 
  2  5  2  0  0  0  0 
  2  6  1  0  0  0  0 
  3  7  2  0  0  0  0 
  3  8  1  0  0  0  0 
  6  9  2  0  0  0  0 
  6 10  1  0  0  0  0 
  7 11  1  0  0  0  0 
 12  8  2  0  0  0  0 
  9 13  1  0  0  0  0 
 14 10  2  0  0  0  0 
 11 15  2  0  0  0  0 
 11 16  1  0  0  0  0 
 15 12  1  0  0  0  0 
 13 17  2  0  0  0  0 
 17 14  1  0  0  0  0 
 15 18  1  0  0  0  0 
 19 16  2  0  0  0  0 
 17 20  1  0  0  0  0 
 18 21  2  0  0  0  0 
 21 19  1  0  0  0  0 
M  END
> <Name>
Benzenesulfonamide, 4-amino-N-2-quinoxalinyl-

> <Source>
NIH3DMolFile

> <Tox>
2.341

> <CAS>
59-40-5

$$$$

  CDK

  9  9  0  0  0  0  0  0  0  0999 V2000
    0.0000   -2.3037    0.0000 O   0  0  0  0  0  0  0  0  0  0  0  0
    0.6655   -1.1542    0.0000 C   0  0  0  0  0  0  0  0  0  0  0  0
    0.0000   -0.0000    0.0000 O   0  0  0  0  0  0  0  0  0  0  0  0
    1.9965   -1.1542    0.0000 C   0  0  0  0  0  0  0  0  0  0  0  0
    2.6574   -0.0000    0.0000 C   0  0  0  0  0  0  0  0  0  0  0  0
    2.6574   -2.3037    0.0000 C   0  0  0  0  0  0  0  0  0  0  0  0
    3.9884   -0.0000    0.0000 C   0  0  0  0  0  0  0  0  0  0  0  0
    3.9884   -2.3037    0.0000 N   0  0  0  0  0  0  0  0  0  0  0  0
    4.6539   -1.1542    0.0000 C   0  0  0  0  0  0  0  0  0  0  0  0
  1  2  1  0  0  0  0 
  2  3  2  0  0  0  0 
  2  4  1  0  0  0  0 
  4  5  2  0  0  0  0 
  4  6  1  0  0  0  0 
  5  7  1  0  0  0  0 
  8  6  2  0  0  0  0 
  7  9  2  0  0  0  0 
  9  8  1  0  0  0  0 
M  END
> <Name>
3-Pyridinecarboxylic acid

> <Source>
DSSTox2DMolFile

> <Tox>
1.245

> <CAS>
59-67-6

$$$$

  CDK

 14 14  0  0  0  0  0  0  0  0999 V2000
    0.2393   -2.5025    0.0000 O   0  0  0  0  0  0  0  0  0  0  0  0
    0.7777   -1.2861    0.0000 N   0  0  0  0  0  0  0  0  0  0  0  0
    2.1037   -1.1466    0.0000 C   0  0  0  0  0  0  0  0  0  0  0  0
    0.0000   -0.2094    0.0000 O   0  0  0  0  0  0  0  0  0  0  0  0
    2.7717   -0.0000    0.0000 C   0  0  0  0  0  0  0  0  0  0  0  0
    2.9910   -2.1336    0.0000 O   0  0  0  0  0  0  0  0  0  0  0  0
    4.0678   -0.2692    0.0000 C   0  0  0  0  0  0  0  0  0  0  0  0
    4.2074   -1.5952    0.0000 C   0  0  0  0  0  0  0  0  0  0  0  0
    5.3639   -2.2632    0.0000 C   0  0  0  0  0  0  0  0  0  0  0  0
    6.5105   -1.5952    0.0000 N   0  0  0  0  0  0  0  0  0  0  0  0
    7.6670   -2.2632    0.0000 N   0  0  0  0  0  0  0  0  0  0  0  0
    8.8136   -1.5952    0.0000 C   0  0  0  0  0  0  0  0  0  0  0  0
    8.8136   -0.2692    0.0000 O   0  0  0  0  0  0  0  0  0  0  0  0
    9.9701   -2.2632    0.0000 N   0  0  0  0  0  0  0  0  0  0  0  0
  1  2  2  0  0  0  0 
  2  3  1  0  0  0  0 
  2  4  1  0  0  0  0 
  3  5  2  0  0  0  0 
  3  6  1  0  0  0  0 
  5  7  1  0  0  0  0 
  8  6  1  0  0  0  0 
  7  8  2  0  0  0  0 
  8  9  1  0  0  0  0 
  9 10  2  0  0  0  0 
 10 11  1  0  0  0  0 
 11 12  1  0  0  0  0 
 12 13  2  0  0  0  0 
 12 14  1  0  0  0  0 
M  CHG  1   2   1
M  CHG  1   4  -1
M  END
> <Name>
Hydrazinecarboxamide, 2-((5-nitro-2-furanyl)methylene)-

> <Source>
DSSTox2DMolFile

> <Tox>
2.526

> <CAS>
59-87-0

$$$$

  CDK

  9  9  0  0  0  0  0  0  0  0999 V2000
    2.0190   -3.4571    0.0000 C   0  0  0  0  0  0  0  0  0  0  0  0
    2.7151   -4.6076    0.0000 C   0  0  0  0  0  0  0  0  0  0  0  0
    0.6960   -3.4571    0.0000 C   0  0  0  0  0  0  0  0  0  0  0  0
    2.6518   -2.2952    0.0000 C   0  0  0  0  0  0  0  0  0  0  0  0
    2.0190   -5.7523    0.0000 C   0  0  0  0  0  0  0  0  0  0  0  0
    0.0000   -4.6076    0.0000 C   0  0  0  0  0  0  0  0  0  0  0  0
    1.9903   -1.1447    0.0000 C   0  0  0  0  0  0  0  0  0  0  0  0
    0.6960   -5.7523    0.0000 C   0  0  0  0  0  0  0  0  0  0  0  0
    2.6173   -0.0000    0.0000 O   0  0  0  0  0  0  0  0  0  0  0  0
  1  2  2  0  0  0  0 
  1  3  1  0  0  0  0 
  1  4  1  0  0  0  0 
  2  5  1  0  0  0  0 
  6  3  2  0  0  0  0 
  7  4  1  0  0  0  0 
  5  8  2  0  0  0  0 
  8  6  1  0  0  0  0 
  7  9  1  0  0  0  0 
M  END
> <Name>
Phenethyl alcohol

> <Source>
DSSTox2DMolFile

> <Tox>
1.834

> <CAS>
60-12-8

$$$$

  CDK

 12 11  0  0  0  0  0  0  0  0999 V2000
    3.3242   -1.9909    0.0000 S   0  0  0  0  0  0  0  0  0  0  0  0
    1.9909   -1.9909    0.0000 P   0  0  0  0  0  0  0  0  0  0  0  0
    1.9909   -3.3242    0.0000 S   0  0  0  0  0  0  0  0  0  0  0  0
    0.6636   -1.9909    0.0000 O   0  0  0  0  0  0  0  0  0  0  0  0
    1.9909   -0.6636    0.0000 O   0  0  0  0  0  0  0  0  0  0  0  0
    3.1448   -3.9878    0.0000 C   0  0  0  0  0  0  0  0  0  0  0  0
    0.0000   -3.1448    0.0000 C   0  0  0  0  0  0  0  0  0  0  0  0
    3.1448   -0.0000    0.0000 C   0  0  0  0  0  0  0  0  0  0  0  0
    3.1448   -5.3151    0.0000 C   0  0  0  0  0  0  0  0  0  0  0  0
    1.9909   -5.9788    0.0000 O   0  0  0  0  0  0  0  0  0  0  0  0
    4.2928   -5.9788    0.0000 N   0  0  0  0  0  0  0  0  0  0  0  0
    5.4467   -5.3151    0.0000 C   0  0  0  0  0  0  0  0  0  0  0  0
  1  2  2  0  0  0  0 
  2  3  1  0  0  0  0 
  2  4  1  0  0  0  0 
  2  5  1  0  0  0  0 
  3  6  1  0  0  0  0 
  4  7  1  0  0  0  0 
  5  8  1  0  0  0  0 
  6  9  1  0  0  0  0 
  9 10  2  0  0  0  0 
  9 11  1  0  0  0  0 
 11 12  1  0  0  0  0 
M  END
> <Name>
Phosphorodithioic acid, O,O-dimethyl ester, S-ester with 2-mercapto-N-methylacetamide

> <Source>
DSSTox2DMolFile

> <Tox>
3.582

> <CAS>
60-51-5

$$$$

  CDK

 23 25  0  0  0  0  0  0  0  0999 V2000
    4.6077   -7.9806    0.0000 C   0  0  0  0  0  0  0  0  0  0  0  0
    3.4558   -8.6441    0.0000 C   0  0  0  0  0  0  0  0  0  0  0  0
    4.6077   -6.6444    0.0000 C   0  0  0  0  0  0  0  0  0  0  0  0
    2.3039   -7.9806    0.0000 C   0  0  0  0  0  0  0  0  0  0  0  0
    3.4558   -5.9809    0.0000 C   0  0  0  0  0  0  0  0  0  0  0  0
    2.3039   -6.6444    0.0000 C   0  0  0  0  0  0  0  0  0  0  0  0
    3.4558   -4.6538    0.0000 N   0  0  0  0  0  0  0  0  0  0  0  0
    1.1519   -5.9809    0.0000 S   0  0  0  0  0  0  0  0  0  0  0  0
    4.6077   -3.9903    0.0000 C   0  0  0  0  0  0  0  0  0  0  0  0
    2.3039   -3.9903    0.0000 C   0  0  0  0  0  0  0  0  0  0  0  0
    1.1519   -4.6538    0.0000 C   0  0  0  0  0  0  0  0  0  0  0  0
    5.7597   -4.6538    0.0000 C   0  0  0  0  0  0  0  0  0  0  0  0
    2.3039   -2.6541    0.0000 C   0  0  0  0  0  0  0  0  0  0  0  0
    0.0000   -3.9903    0.0000 C   0  0  0  0  0  0  0  0  0  0  0  0
    5.7597   -5.9809    0.0000 C   0  0  0  0  0  0  0  0  0  0  0  0
    6.9116   -3.9903    0.0000 C   0  0  0  0  0  0  0  0  0  0  0  0
    1.1519   -1.9905    0.0000 C   0  0  0  0  0  0  0  0  0  0  0  0
    0.0000   -2.6541    0.0000 C   0  0  0  0  0  0  0  0  0  0  0  0
    8.0636   -4.6538    0.0000 N   0  0  0  0  0  0  0  0  0  0  0  0
    1.1519   -0.6635    0.0000 O   0  0  0  0  0  0  0  0  0  0  0  0
    9.2155   -3.9903    0.0000 C   0  0  0  0  0  0  0  0  0  0  0  0
    8.0636   -5.9809    0.0000 C   0  0  0  0  0  0  0  0  0  0  0  0
    0.0000   -0.0000    0.0000 C   0  0  0  0  0  0  0  0  0  0  0  0
  1  2  2  0  0  0  0 
  1  3  1  0  0  0  0 
  2  4  1  0  0  0  0 
  5  3  2  0  0  0  0 
  4  6  2  0  0  0  0 
  6  5  1  0  0  0  0 
  5  7  1  0  0  0  0 
  6  8  1  0  0  0  0 
  7  9  1  0  0  0  0 
  7 10  1  0  0  0  0 
 11  8  1  0  0  0  0 
  9 12  1  0  0  0  0 
 10 11  2  0  0  0  0 
 10 13  1  0  0  0  0 
 11 14  1  0  0  0  0 
 12 15  1  0  0  0  0 
 12 16  1  0  0  0  0 
 17 13  2  0  0  0  0 
 14 18  2  0  0  0  0 
 16 19  1  0  0  0  0 
 18 17  1  0  0  0  0 
 17 20  1  0  0  0  0 
 19 21  1  0  0  0  0 
 19 22  1  0  0  0  0 
 20 23  1  0  0  0  0 
M  END
> <Name>
10H-Phenothiazine-10-propanamine, 2-methoxy-N,N,beta-trimethyl-, (-)-

> <Source>
DSSTox2DMolFile

> <Tox>
2.475

> <CAS>
60-99-1

$$$$

  CDK

  9  8  0  0  0  0  0  0  0  0999 V2000
    0.0000    0.9995    0.0000 C   0  0  0  0  0  0  0  0  0  0  0  0
    0.8496    1.4993    0.0000 S   0  0  0  0  0  0  0  0  0  0  0  0
    1.7492    0.9995    0.0000 C   0  0  0  0  0  0  0  0  0  0  0  0
    2.5988    1.4993    0.0000 C   0  0  0  0  0  0  0  0  0  0  0  0
    3.4484    0.9995    0.0000 C   0  0  0  0  0  0  0  0  0  0  0  0
    4.3480    1.4993    0.0000 C   0  0  0  0  0  0  0  0  0  0  0  0
    3.4484    0.0000    0.0000 N   0  0  0  0  0  0  0  0  0  0  0  0
    5.1976    0.9995    0.0000 O   0  0  0  0  0  0  0  0  0  0  0  0
    4.3480    2.4988    0.0000 O   0  0  0  0  0  0  0  0  0  0  0  0
  1  2  1  0  0  0  0 
  2  3  1  0  0  0  0 
  3  4  1  0  0  0  0 
  4  5  1  0  0  0  0 
  5  6  1  0  0  0  0 
  5  7  1  1  0  0  0 
  6  8  1  0  0  0  0 
  6  9  2  0  0  0  0 
M  END
> <Name>
Methionine, L-

> <Source>
NIST2DMolFile

> <Tox>
0.617

> <CAS>
63-68-3

$$$$

  CDK

 13 13  0  0  0  0  0  0  0  0999 V2000
    6.9121   -0.0000    0.0000 C   0  0  0  0  0  0  0  0  0  0  0  0
    8.0654   -0.6694    0.0000 C   0  0  0  0  0  0  0  0  0  0  0  0
    5.7587   -0.6694    0.0000 C   0  0  0  0  0  0  0  0  0  0  0  0
    8.0654   -2.0002    0.0000 C   0  0  0  0  0  0  0  0  0  0  0  0
    5.7587   -2.0002    0.0000 C   0  0  0  0  0  0  0  0  0  0  0  0
    6.9121   -2.6616    0.0000 C   0  0  0  0  0  0  0  0  0  0  0  0
    4.6054   -2.6616    0.0000 C   0  0  0  0  0  0  0  0  0  0  0  0
    3.4601   -2.0002    0.0000 C   0  0  0  0  0  0  0  0  0  0  0  0
    3.4601   -0.6694    0.0000 O   0  0  0  0  0  0  0  0  0  0  0  0
    2.3067   -2.6616    0.0000 N   0  0  0  0  0  0  0  0  0  0  0  0
    1.1534   -2.0002    0.0000 C   0  0  0  0  0  0  0  0  0  0  0  0
    0.0000   -2.6616    0.0000 N   0  0  0  0  0  0  0  0  0  0  0  0
    1.1534   -0.6694    0.0000 O   0  0  0  0  0  0  0  0  0  0  0  0
  1  2  2  0  0  0  0 
  1  3  1  0  0  0  0 
  2  4  1  0  0  0  0 
  5  3  2  0  0  0  0 
  4  6  2  0  0  0  0 
  6  5  1  0  0  0  0 
  5  7  1  0  0  0  0 
  7  8  1  0  0  0  0 
  8  9  2  0  0  0  0 
  8 10  1  0  0  0  0 
 10 11  1  0  0  0  0 
 11 12  1  0  0  0  0 
 11 13  2  0  0  0  0 
M  END
> <Name>
Benzeneacetamide, N-(aminocarbonyl)-

> <Source>
DSSTox2DMolFile

> <Tox>
2.047

> <CAS>
63-98-9

$$$$

  CDK

 11 11  0  0  0  0  0  0  0  0999 V2000
    1.0009    0.9008    0.0000 C   0  0  0  0  0  0  0  0  0  0  0  0
    1.5014    1.7516    0.0000 N   0  0  0  0  0  0  0  0  0  0  0  0
    1.5014    0.0000    0.0000 N   0  0  0  0  0  0  0  0  0  0  0  0
    0.0000    0.9008    0.0000 O   0  0  0  0  0  0  0  0  0  0  0  0
    2.5023    1.7516    0.0000 C   0  0  0  0  0  0  0  0  0  0  0  0
    3.0028    2.6024    0.0000 C   0  0  0  0  0  0  0  0  0  0  0  0
    3.0028    0.9008    0.0000 C   0  0  0  0  0  0  0  0  0  0  0  0
    4.0037    2.6024    0.0000 C   0  0  0  0  0  0  0  0  0  0  0  0
    4.0037    0.9008    0.0000 C   0  0  0  0  0  0  0  0  0  0  0  0
    4.5041    3.5032    0.0000 C   0  0  0  0  0  0  0  0  0  0  0  0
    4.5041    1.7516    0.0000 C   0  0  0  0  0  0  0  0  0  0  0  0
  1  2  1  0  0  0  0 
  1  3  1  0  0  0  0 
  1  4  2  0  0  0  0 
  2  5  1  0  0  0  0 
  6  5  2  0  0  0  0 
  5  7  1  0  0  0  0 
  8  6  1  0  0  0  0 
  7  9  2  0  0  0  0 
  8 10  1  0  0  0  0 
 11  8  2  0  0  0  0 
  9 11  1  0  0  0  0 
M  END
> <Name>
Urea, (3-methylphenyl)-

> <Source>
NIST2DMolFile

> <Tox>
2.053

> <CAS>
63-99-0

$$$$

  CDK

 14 14  0  0  0  0  0  0  0  0999 V2000
    2.5311    0.3301    0.4958 C   0  0  0  0  0  0  0  0  0  0  0  0
    2.4926    0.4874   -0.9169 N   0  0  0  0  0  0  0  0  0  0  0  0
    3.4229    0.6835    1.2433 O   0  0  0  0  0  0  0  0  0  0  0  0
    1.4792   -0.1799    1.2148 O   0  0  0  0  0  0  0  0  0  0  0  0
    3.7386    0.7945   -1.6328 C   0  0  0  0  0  0  0  0  0  0  0  0
    0.3474   -0.6154    0.5246 C   0  0  0  0  0  0  0  0  0  0  0  0
   -0.7572    0.2364    0.4469 C   0  0  0  0  0  0  0  0  0  0  0  0
    0.2910   -1.9287    0.0464 C   0  0  0  0  0  0  0  0  0  0  0  0
   -1.9399   -0.2322   -0.1276 C   0  0  0  0  0  0  0  0  0  0  0  0
   -0.8928   -2.3798   -0.5241 C   0  0  0  0  0  0  0  0  0  0  0  0
   -1.9984   -1.5403   -0.6136 C   0  0  0  0  0  0  0  0  0  0  0  0
   -3.1540    0.6514   -0.2270 C   0  0  0  0  0  0  0  0  0  0  0  0
   -2.8650    1.8760   -1.0822 C   0  0  0  0  0  0  0  0  0  0  0  0
   -3.6401    1.0586    1.1558 C   0  0  0  0  0  0  0  0  0  0  0  0
  1  2  1  0  0  0  0 
  1  3  2  0  0  0  0 
  1  4  1  0  0  0  0 
  2  5  1  0  0  0  0 
  4  6  1  0  0  0  0 
  6  7  1  0  0  0  0 
  6  8  2  0  0  0  0 
  7  9  2  0  0  0  0 
 10  8  1  0  0  0  0 
  9 11  1  0  0  0  0 
  9 12  1  0  0  0  0 
 11 10  2  0  0  0  0 
 12 13  1  0  0  0  0 
 12 14  1  0  0  0  0 
M  END
> <Name>
Phenol, 3-(1-methylethyl)-, methylcarbamate (9CI)

> <Source>
DougDB3DMolFile

> <Tox>
4.082

> <CAS>
64-00-6

$$$$

  CDK

 10 10  0  0  0  0  0  0  0  0999 V2000
    0.0000    1.9696    0.0000 N   0  0  0  0  0  0  0  0  0  0  0  0
    0.8811    1.4513    0.0000 C   0  0  0  0  0  0  0  0  0  0  0  0
    0.8811    0.5183    0.0000 O   0  0  0  0  0  0  0  0  0  0  0  0
    1.8141    1.9696    0.0000 N   0  0  0  0  0  0  0  0  0  0  0  0
    2.6953    1.4513    0.0000 C   0  0  0  0  0  0  0  0  0  0  0  0
    3.5764    1.9696    0.0000 C   0  0  0  0  0  0  0  0  0  0  0  0
    2.6953    0.5183    0.0000 C   0  0  0  0  0  0  0  0  0  0  0  0
    4.4576    1.4513    0.0000 C   0  0  0  0  0  0  0  0  0  0  0  0
    3.5764    0.0000    0.0000 C   0  0  0  0  0  0  0  0  0  0  0  0
    4.4576    0.5183    0.0000 C   0  0  0  0  0  0  0  0  0  0  0  0
  1  2  1  0  0  0  0 
  2  3  2  0  0  0  0 
  2  4  1  0  0  0  0 
  4  5  1  0  0  0  0 
  5  6  2  0  0  0  0 
  7  5  1  0  0  0  0 
  6  8  1  0  0  0  0 
  9  7  2  0  0  0  0 
  8 10  2  0  0  0  0 
 10  9  1  0  0  0  0 
M  END
> <Name>
Urea, phenyl-

> <Source>
NIST2DMolFile

> <Tox>
1.833

> <CAS>
64-10-8

$$$$

  CDK

  3  2  0  0  0  0  0  0  0  0999 V2000
    1.1545   -0.6604    0.0000 C   0  0  0  0  0  0  0  0  0  0  0  0
    0.0000   -0.0000    0.0000 O   0  0  0  0  0  0  0  0  0  0  0  0
    2.3090   -0.0000    0.0000 O   0  0  0  0  0  0  0  0  0  0  0  0
  1  2  2  0  0  0  0 
  1  3  1  0  0  0  0 
M  END
> <Name>
Formic acid

> <Source>
DSSTox2DMolFile

> <Tox>
1.622

> <CAS>
64-18-6

$$$$

  CDK

  7  6  0  0  0  0  0  0  0  0999 V2000
    0.0000   -0.6638    0.0000 C   0  0  0  0  0  0  0  0  0  0  0  0
    1.1548   -0.0000    0.0000 C   0  0  0  0  0  0  0  0  0  0  0  0
    2.3027   -0.6638    0.0000 C   0  0  0  0  0  0  0  0  0  0  0  0
    3.4575   -0.0000    0.0000 C   0  0  0  0  0  0  0  0  0  0  0  0
    4.6122   -0.6638    0.0000 C   0  0  0  0  0  0  0  0  0  0  0  0
    5.7601   -0.0000    0.0000 C   0  0  0  0  0  0  0  0  0  0  0  0
    6.9149   -0.6638    0.0000 O   0  0  0  0  0  0  0  0  0  0  0  0
  1  2  1  0  0  0  0 
  2  3  1  0  0  0  0 
  3  4  1  0  0  0  0 
  4  5  1  0  0  0  0 
  5  6  1  0  0  0  0 
  6  7  2  0  0  0  0 
M  END
> <Name>
Hexaldehyde

> <Source>
DSSTox2DMolFile

> <Tox>
1.311

> <CAS>
66-25-1

$$$$

  CDK

 15 15  0  0  0  0  0  0  0  0999 V2000
    5.3217   -2.3058    0.0000 N   0  0  0  0  0  0  0  0  0  0  0  0
    5.9839   -1.1489    0.0000 C   0  0  0  0  0  0  0  0  0  0  0  0
    5.9839   -3.4547    0.0000 C   0  0  0  0  0  0  0  0  0  0  0  0
    3.9892   -2.3058    0.0000 C   0  0  0  0  0  0  0  0  0  0  0  0
    7.3163   -1.1489    0.0000 C   0  0  0  0  0  0  0  0  0  0  0  0
    7.3163   -3.4547    0.0000 C   0  0  0  0  0  0  0  0  0  0  0  0
    3.3270   -3.4547    0.0000 C   0  0  0  0  0  0  0  0  0  0  0  0
    3.3270   -1.1489    0.0000 C   0  0  0  0  0  0  0  0  0  0  0  0
    7.9785   -0.0000    0.0000 Cl  0  0  0  0  0  0  0  0  0  0  0  0
    7.9785   -2.3058    0.0000 Cl  0  0  0  0  0  0  0  0  0  0  0  0
    1.9946   -3.4547    0.0000 N   0  0  0  0  0  0  0  0  0  0  0  0
    1.9946   -1.1489    0.0000 N   0  0  0  0  0  0  0  0  0  0  0  0
    3.9892   -0.0000    0.0000 O   0  0  0  0  0  0  0  0  0  0  0  0
    1.3324   -2.3058    0.0000 C   0  0  0  0  0  0  0  0  0  0  0  0
    0.0000   -2.3058    0.0000 O   0  0  0  0  0  0  0  0  0  0  0  0
  1  2  1  0  0  0  0 
  1  3  1  0  0  0  0 
  1  4  1  0  0  0  0 
  2  5  1  0  0  0  0 
  3  6  1  0  0  0  0 
  4  7  2  0  0  0  0 
  4  8  1  0  0  0  0 
  5  9  1  0  0  0  0 
  6 10  1  0  0  0  0 
  7 11  1  0  0  0  0 
 12  8  1  0  0  0  0 
  8 13  2  0  0  0  0 
 11 14  1  0  0  0  0 
 14 12  1  0  0  0  0 
 14 15  2  0  0  0  0 
M  END
> <Name>
2,4(1H,3H)-Pyrimidinedione, 5-(bis(2-chloroethyl)amino)-

> <Source>
DSSTox2DMolFile

> <Tox>
4.851

> <CAS>
66-75-1

$$$$

  CDK

 25 28  0  0  0  0  0  0  0  0999 V2000
    5.7947   -5.4884    0.0000 O   0  0  0  0  0  0  0  0  0  0  0  0
    4.6640   -4.8407    0.0000 C   0  0  0  0  0  0  0  0  0  0  0  0
    3.6747   -5.6769    0.0000 O   0  0  0  0  0  0  0  0  0  0  0  0
    4.4402   -3.5569    0.0000 C   0  0  0  0  0  0  0  0  0  0  0  0
    2.4498   -5.2293    0.0000 C   0  0  0  0  0  0  0  0  0  0  0  0
    3.2153   -3.1093    0.0000 C   0  0  0  0  0  0  0  0  0  0  0  0
    5.5238   -2.2613    0.0000 C   0  0  0  0  0  0  0  0  0  0  0  0
    1.4487   -6.0656    0.0000 C   0  0  0  0  0  0  0  0  0  0  0  0
    2.2260   -3.9456    0.0000 C   0  0  0  0  0  0  0  0  0  0  0  0
    2.9916   -1.8256    0.0000 O   0  0  0  0  0  0  0  0  0  0  0  0
    7.2198   -2.2613    0.0000 C   0  0  0  0  0  0  0  0  0  0  0  0
    0.2238   -5.6180    0.0000 C   0  0  0  0  0  0  0  0  0  0  0  0
    1.0011   -3.4980    0.0000 C   0  0  0  0  0  0  0  0  0  0  0  0
    7.8675   -3.3802    0.0000 C   0  0  0  0  0  0  0  0  0  0  0  0
    7.8675   -1.1307    0.0000 C   0  0  0  0  0  0  0  0  0  0  0  0
    0.0000   -4.3342    0.0000 C   0  0  0  0  0  0  0  0  0  0  0  0
    7.4318   -4.6051    0.0000 O   0  0  0  0  0  0  0  0  0  0  0  0
    9.1749   -3.3802    0.0000 C   0  0  0  0  0  0  0  0  0  0  0  0
    9.1749   -1.1307    0.0000 O   0  0  0  0  0  0  0  0  0  0  0  0
    7.2198   -0.0000    0.0000 O   0  0  0  0  0  0  0  0  0  0  0  0
    9.8227   -4.5109    0.0000 C   0  0  0  0  0  0  0  0  0  0  0  0
    9.8227   -2.2613    0.0000 C   0  0  0  0  0  0  0  0  0  0  0  0
   11.1300   -4.5109    0.0000 C   0  0  0  0  0  0  0  0  0  0  0  0
   11.1300   -2.2613    0.0000 C   0  0  0  0  0  0  0  0  0  0  0  0
   11.7778   -3.3802    0.0000 C   0  0  0  0  0  0  0  0  0  0  0  0
  1  2  2  0  0  0  0 
  2  3  1  0  0  0  0 
  2  4  1  0  0  0  0 
  3  5  1  0  0  0  0 
  6  4  2  0  0  0  0 
  4  7  1  0  0  0  0 
  5  8  2  0  0  0  0 
  5  9  1  0  0  0  0 
  9  6  1  0  0  0  0 
  6 10  1  0  0  0  0 
  7 11  1  0  0  0  0 
  8 12  1  0  0  0  0 
 13  9  2  0  0  0  0 
 11 14  2  0  0  0  0 
 11 15  1  0  0  0  0 
 12 16  2  0  0  0  0 
 16 13  1  0  0  0  0 
 14 17  1  0  0  0  0 
 14 18  1  0  0  0  0 
 19 15  1  0  0  0  0 
 15 20  2  0  0  0  0 
 18 21  2  0  0  0  0 
 18 22  1  0  0  0  0 
 22 19  1  0  0  0  0 
 21 23  1  0  0  0  0 
 24 22  2  0  0  0  0 
 23 25  2  0  0  0  0 
 25 24  1  0  0  0  0 
M  END
> <Name>
2H-1-Benzopyran-2-one, 3,3'-methylenebis(4-hydroxy-

> <Source>
DSSTox2DMolFile

> <Tox>
3.129

> <CAS>
66-76-2

$$$$

  CDK

  2  1  0  0  0  0  0  0  0  0999 V2000
    0.0000   -0.0000    0.0000 C   0  0  0  0  0  0  0  0  0  0  0  0
    1.3300   -0.0000    0.0000 O   0  0  0  0  0  0  0  0  0  0  0  0
  1  2  1  0  0  0  0 
M  END
> <Name>
Methanol

> <Source>
DSSTox2DMolFile

> <Tox>
0.755

> <CAS>
67-56-1

$$$$

  CDK

 19 21  0  0  0  0  0  0  0  0999 V2000
    2.5271    3.9422    0.0000 C   0  0  0  0  0  0  0  0  0  0  0  0
    1.5162    3.9422    0.0000 C   0  0  0  0  0  0  0  0  0  0  0  0
    3.0830    4.8014    0.0000 N   0  0  0  0  0  0  0  0  0  0  0  0
    2.8303    2.9819    0.0000 N   0  0  0  0  0  0  0  0  0  0  0  0
    1.0108    4.8014    0.0000 C   0  0  0  0  0  0  0  0  0  0  0  0
    1.2635    2.9819    0.0000 C   0  0  0  0  0  0  0  0  0  0  0  0
    2.5271    5.7112    0.0000 C   0  0  0  0  0  0  0  0  0  0  0  0
    2.0217    2.4260    0.0000 C   0  0  0  0  0  0  0  0  0  0  0  0
    3.7401    2.6787    0.0000 C   0  0  0  0  0  0  0  0  0  0  0  0
    1.5162    5.7112    0.0000 N   0  0  0  0  0  0  0  0  0  0  0  0
    0.0000    4.8014    0.0000 N   0  0  0  0  0  0  0  0  0  0  0  0
    4.0433    1.7184    0.0000 O   0  0  0  0  0  0  0  0  0  0  0  0
    4.5487    3.1841    0.0000 C   0  0  0  0  0  0  0  0  0  0  0  0
    5.0541    1.7184    0.0000 C   0  0  0  0  0  0  0  0  0  0  0  0
    5.3574    2.6787    0.0000 C   0  0  0  0  0  0  0  0  0  0  0  0
    4.5487    4.1949    0.0000 O   0  0  0  0  0  0  0  0  0  0  0  0
    5.5596    0.8592    0.0000 C   0  0  0  0  0  0  0  0  0  0  0  0
    6.3177    3.0325    0.0000 O   0  0  0  0  0  0  0  0  0  0  0  0
    5.0541    0.0000    0.0000 O   0  0  0  0  0  0  0  0  0  0  0  0
  1  2  2  0  0  0  0 
  1  3  1  0  0  0  0 
  4  1  1  0  0  0  0 
  5  2  1  0  0  0  0 
  2  6  1  0  0  0  0 
  3  7  2  0  0  0  0 
  8  4  1  0  0  0  0 
  4  9  1  0  0  0  0 
 10  5  2  0  0  0  0 
  5 11  1  0  0  0  0 
  6  8  2  0  0  0  0 
  7 10  1  0  0  0  0 
  9 12  1  0  0  0  0 
 13  9  1  0  0  0  0 
 12 14  1  0  0  0  0 
 15 13  1  0  0  0  0 
 13 16  1  0  0  0  0 
 14 15  1  0  0  0  0 
 14 17  1  0  0  0  0 
 15 18  1  0  0  0  0 
 17 19  1  0  0  0  0 
M  END
> <Name>
7-beta-D-ribofuranosyl-7H-pyrrolo-(2,3-d)pyrimidin-4-amine (9CI)

> <Source>
NIST2DMolFile

> <Tox>
4.221

> <CAS>
69-33-0

$$$$

  CDK

 10 10  0  0  0  0  0  0  0  0999 V2000
    2.2984   -2.0134    0.0000 C   0  0  0  0  0  0  0  0  0  0  0  0
    3.4568   -1.3468    0.0000 C   0  0  0  0  0  0  0  0  0  0  0  0
    2.2984   -3.3281    0.0000 C   0  0  0  0  0  0  0  0  0  0  0  0
    1.1584   -1.3468    0.0000 C   0  0  0  0  0  0  0  0  0  0  0  0
    3.4568   -0.0000    0.0000 O   0  0  0  0  0  0  0  0  0  0  0  0
    4.5968   -2.0134    0.0000 O   0  0  0  0  0  0  0  0  0  0  0  0
    3.4568   -4.0268    0.0000 O   0  0  0  0  0  0  0  0  0  0  0  0
    1.1584   -3.9946    0.0000 C   0  0  0  0  0  0  0  0  0  0  0  0
    0.0000   -2.0134    0.0000 C   0  0  0  0  0  0  0  0  0  0  0  0
    0.0000   -3.3281    0.0000 C   0  0  0  0  0  0  0  0  0  0  0  0
  1  2  1  0  0  0  0 
  1  3  2  0  0  0  0 
  1  4  1  0  0  0  0 
  2  5  2  0  0  0  0 
  2  6  1  0  0  0  0 
  3  7  1  0  0  0  0 
  3  8  1  0  0  0  0 
  4  9  2  0  0  0  0 
  8 10  2  0  0  0  0 
  9 10  1  0  0  0  0 
M  END
> <Name>
Benzoic acid, 2-hydroxy-

> <Source>
DSSTox2DMolFile

> <Tox>
2.190

> <CAS>
69-72-7

$$$$

  CDK

 23 24  0  0  0  0  0  0  0  0999 V2000
    1.1518   -3.3265    0.0000 C   0  0  0  0  0  0  0  0  0  0  0  0
    1.1518   -1.9996    0.0000 C   0  0  0  0  0  0  0  0  0  0  0  0
    2.3037   -3.9899    0.0000 O   0  0  0  0  0  0  0  0  0  0  0  0
    0.0000   -3.9899    0.0000 O   0  0  0  0  0  0  0  0  0  0  0  0
    2.3037   -1.3361    0.0000 C   0  0  0  0  0  0  0  0  0  0  0  0
    0.0000   -1.3361    0.0000 O   0  0  0  0  0  0  0  0  0  0  0  0
    3.4555   -3.3265    0.0000 C   0  0  0  0  0  0  0  0  0  0  0  0
    3.4555   -1.9996    0.0000 C   0  0  0  0  0  0  0  0  0  0  0  0
    2.3037   -0.0000    0.0000 O   0  0  0  0  0  0  0  0  0  0  0  0
    4.6073   -3.9899    0.0000 C   0  0  0  0  0  0  0  0  0  0  0  0
    4.6073   -1.3361    0.0000 O   0  0  0  0  0  0  0  0  0  0  0  0
    4.6073   -5.3261    0.0000 O   0  0  0  0  0  0  0  0  0  0  0  0
    5.7592   -1.9996    0.0000 C   0  0  0  0  0  0  0  0  0  0  0  0
    6.9110   -1.3361    0.0000 C   0  0  0  0  0  0  0  0  0  0  0  0
    5.7592   -3.3265    0.0000 O   0  0  0  0  0  0  0  0  0  0  0  0
    8.0628   -1.9996    0.0000 C   0  0  0  0  0  0  0  0  0  0  0  0
    6.9110   -0.0000    0.0000 O   0  0  0  0  0  0  0  0  0  0  0  0
    6.9110   -3.9899    0.0000 C   0  0  0  0  0  0  0  0  0  0  0  0
    8.0628   -3.3265    0.0000 C   0  0  0  0  0  0  0  0  0  0  0  0
    9.2146   -1.3361    0.0000 O   0  0  0  0  0  0  0  0  0  0  0  0
    6.9110   -5.3261    0.0000 C   0  0  0  0  0  0  0  0  0  0  0  0
    9.2146   -3.9899    0.0000 O   0  0  0  0  0  0  0  0  0  0  0  0
    8.0628   -5.9895    0.0000 O   0  0  0  0  0  0  0  0  0  0  0  0
  1  2  1  0  0  0  0 
  1  3  1  0  0  0  0 
  1  4  1  1  0  0  0 
  2  5  1  0  0  0  0 
  2  6  1  6  0  0  0 
  7  3  1  0  0  0  0 
  5  8  1  0  0  0  0 
  5  9  1  1  0  0  0 
  8  7  1  0  0  0  0 
  7 10  1  1  0  0  0 
  8 11  1  6  0  0  0 
 10 12  1  0  0  0  0 
 13 11  1  6  0  0  0 
 13 14  1  0  0  0  0 
 13 15  1  0  0  0  0 
 14 16  1  0  0  0  0 
 14 17  1  6  0  0  0 
 18 15  1  0  0  0  0 
 16 19  1  0  0  0  0 
 16 20  1  1  0  0  0 
 19 18  1  0  0  0  0 
 18 21  1  1  0  0  0 
 19 22  1  6  0  0  0 
 21 23  1  0  0  0  0 
M  END
> <Name>
D-Glucose, 4-O-alpha-D-glucopyranosyl-

> <Source>
DSSTox2DMolFile

> <Tox>
0.993

> <CAS>
69-79-4

$$$$

  CDK

  6  5  0  0  0  0  0  0  0  0999 V2000
    0.5785    2.5744    1.4158 C   0  0  0  0  0  0  0  0  0  0  0  0
    1.9721    2.8642    0.9273 C   0  0  0  0  0  0  0  0  0  0  0  0
    3.0430    1.4083    0.5558 S   0  0  0  0  0  0  0  0  0  0  0  0
    3.4894    0.9124    2.2772 C   0  0  0  0  0  0  0  0  0  0  0  0
    2.0860    0.2748    0.0781 O   0  0  0  0  0  0  0  0  0  0  0  0
    4.2284    2.0039    3.0079 C   0  0  0  0  0  0  0  0  0  0  0  0
  1  2  1  0  0  0  0 
  2  3  1  0  0  0  0 
  3  4  1  0  0  0  0 
  3  5  2  0  0  0  0 
  4  6  1  0  0  0  0 
M  END
> <Name>
Ethane, 1,1'-sulfinylbis- (9CI)

> <Source>
NIST3DMolFile

> <Tox>
1.274

> <CAS>
70-29-1

$$$$

  CDK

  6  6  0  0  0  0  0  0  0  0999 V2000
    2.3036   -1.9950    0.0000 C   0  0  0  0  0  0  0  0  0  0  0  0
    1.1518   -2.6600    0.0000 C   0  0  0  0  0  0  0  0  0  0  0  0
    2.3036   -0.6650    0.0000 C   0  0  0  0  0  0  0  0  0  0  0  0
    0.0000   -1.9950    0.0000 C   0  0  0  0  0  0  0  0  0  0  0  0
    1.1518   -0.0000    0.0000 C   0  0  0  0  0  0  0  0  0  0  0  0
    0.0000   -0.6650    0.0000 C   0  0  0  0  0  0  0  0  0  0  0  0
  1  2  2  0  0  0  0 
  1  3  1  0  0  0  0 
  2  4  1  0  0  0  0 
  5  3  2  0  0  0  0 
  4  6  2  0  0  0  0 
  6  5  1  0  0  0  0 
M  END
> <Name>
Benzene, pure

> <Source>
DSSTox2DMolFile

> <Tox>
1.924

> <CAS>
71-43-2

$$$$

  CDK

 20 22  0  0  0  0  0  0  0  0999 V2000
    8.6974   -2.4875    0.0000 C   0  0  0  0  0  0  0  0  0  0  0  0
    8.1234   -3.6877    0.0000 C   0  0  0  0  0  0  0  0  0  0  0  0
    7.9494   -1.3916    0.0000 C   0  0  0  0  0  0  0  0  0  0  0  0
    6.7927   -3.7921    0.0000 C   0  0  0  0  0  0  0  0  0  0  0  0
    6.6187   -1.4873    0.0000 C   0  0  0  0  0  0  0  0  0  0  0  0
    6.0447   -2.6875    0.0000 C   0  0  0  0  0  0  0  0  0  0  0  0
    6.0447   -0.2957    0.0000 C   0  0  0  0  0  0  0  0  0  0  0  0
    4.7488   -2.9832    0.0000 C   0  0  0  0  0  0  0  0  0  0  0  0
    4.7488   -0.0000    0.0000 C   0  0  0  0  0  0  0  0  0  0  0  0
    3.7051   -2.1570    0.0000 C   0  0  0  0  0  0  0  0  0  0  0  0
    4.4531   -4.2791    0.0000 C   0  0  0  0  0  0  0  0  0  0  0  0
    3.7051   -0.8263    0.0000 C   0  0  0  0  0  0  0  0  0  0  0  0
    2.5570   -2.8180    0.0000 C   0  0  0  0  0  0  0  0  0  0  0  0
    3.1658   -4.6270    0.0000 C   0  0  0  0  0  0  0  0  0  0  0  0
    2.5570   -0.1653    0.0000 C   0  0  0  0  0  0  0  0  0  0  0  0
    1.4003   -2.1570    0.0000 C   0  0  0  0  0  0  0  0  0  0  0  0
    2.2265   -3.6877    0.0000 C   0  0  0  0  0  0  0  0  0  0  0  0
    1.4003   -0.8263    0.0000 C   0  0  0  0  0  0  0  0  0  0  0  0
    0.9393   -4.0269    0.0000 N   0  0  0  0  0  0  0  0  0  0  0  0
    0.0000   -3.0876    0.0000 C   0  0  0  0  0  0  0  0  0  0  0  0
  1  2  1  0  0  0  0 
  1  3  2  0  0  0  0 
  2  4  2  0  0  0  0 
  5  3  1  0  0  0  0 
  4  6  1  0  0  0  0 
  6  5  2  0  0  0  0 
  5  7  1  0  0  0  0 
  6  8  1  0  0  0  0 
  7  9  1  0  0  0  0 
 10  8  1  0  0  0  0 
  8 11  2  0  0  0  0 
  9 12  1  0  0  0  0 
 12 10  2  0  0  0  0 
 10 13  1  0  0  0  0 
 11 14  1  0  0  0  0 
 12 15  1  0  0  0  0 
 13 16  2  0  0  0  0 
 14 17  1  0  0  0  0 
 18 15  2  0  0  0  0 
 16 18  1  0  0  0  0 
 17 19  1  0  0  0  0 
 19 20  1  0  0  0  0 
M  END
> <Name>
5H-Dibenzo(a,d)cycloheptene-delta(sup 5),gamma-propylamine, 10,11-dihydro-N-methyl-

> <Source>
DSSTox2DMolFile

> <Tox>
2.720

> <CAS>
72-69-5

$$$$

  CDK

  2  1  0  0  0  0  0  0  0  0999 V2000
    0.0000   -0.0000    0.0000 Cl  0  0  0  0  0  0  0  0  0  0  0  0
    1.3300   -0.0000    0.0000 C   0  0  0  0  0  0  0  0  0  0  0  0
  1  2  1  0  0  0  0 
M  END
> <Name>
Methane, chloro-

> <Source>
DSSTox2DMolFile

> <Tox>
1.448

> <CAS>
74-87-3

$$$$

  CDK

  3  2  0  0  0  0  0  0  0  0999 V2000
    2.3030   -0.6656    0.0000 C   0  0  0  0  0  0  0  0  0  0  0  0
    1.1515   -0.0000    0.0000 C   0  0  0  0  0  0  0  0  0  0  0  0
    0.0000   -0.6656    0.0000 Br  0  0  0  0  0  0  0  0  0  0  0  0
  1  2  1  0  0  0  0 
  2  3  1  0  0  0  0 
M  END
> <Name>
Ethane, bromo-

> <Source>
DSSTox2DMolFile

> <Tox>
1.907

> <CAS>
74-96-4

$$$$

  CDK

  4  3  0  0  0  0  0  0  0  0999 V2000
   -1.1566    1.2562    0.1348 C   0  0  0  0  0  0  0  0  0  0  0  0
   -0.5302    0.0000   -0.4182 C   0  0  0  0  0  0  0  0  0  0  0  0
   -1.1567   -1.2562    0.1348 C   0  0  0  0  0  0  0  0  0  0  0  0
    1.2051    0.0000    0.0462 Cl  0  0  0  0  0  0  0  0  0  0  0  0
  1  2  1  0  0  0  0 
  2  3  1  0  0  0  0 
  2  4  1  0  0  0  0 
M  END
> <Name>
Propane, 2-chloro-

> <Source>
DougDB3DMolFile

> <Tox>
1.196

> <CAS>
75-29-6

$$$$

  CDK

  4  3  0  0  0  0  0  0  0  0999 V2000
    1.9950   -0.0000    0.0000 C   0  0  0  0  0  0  0  0  0  0  0  0
    1.3292   -1.1518    0.0000 C   0  0  0  0  0  0  0  0  0  0  0  0
    1.9950   -2.3037    0.0000 Cl  0  0  0  0  0  0  0  0  0  0  0  0
    0.0000   -1.1518    0.0000 Cl  0  0  0  0  0  0  0  0  0  0  0  0
  1  2  1  0  0  0  0 
  2  3  1  0  0  0  0 
  2  4  1  0  0  0  0 
M  END
> <Name>
Ethane, 1,1-dichloro-

> <Source>
DSSTox2DMolFile

> <Tox>
2.135

> <CAS>
75-34-3

$$$$

  CDK

  4  3  0  0  0  0  0  0  0  0999 V2000
    1.9950   -0.0000    0.0000 C   0  0  0  0  0  0  0  0  0  0  0  0
    1.3292   -1.1518    0.0000 C   0  0  0  0  0  0  0  0  0  0  0  0
    1.9950   -2.3037    0.0000 Cl  0  0  0  0  0  0  0  0  0  0  0  0
    0.0000   -1.1518    0.0000 Cl  0  0  0  0  0  0  0  0  0  0  0  0
  1  2  2  0  0  0  0 
  2  3  1  0  0  0  0 
  2  4  1  0  0  0  0 
M  END
> <Name>
1,1-Dichloroethene (9CI)

> <Source>
DSSTox2DMolFile

> <Tox>
2.685

> <CAS>
75-35-4

$$$$

  CDK

  5  4  0  0  0  0  0  0  0  0999 V2000
    1.3300   -1.3300    0.0000 C   0  0  0  0  0  0  0  0  0  0  0  0
    1.3300   -2.6600    0.0000 C   0  0  0  0  0  0  0  0  0  0  0  0
    0.0000   -1.3300    0.0000 C   0  0  0  0  0  0  0  0  0  0  0  0
    1.3300   -0.0000    0.0000 C   0  0  0  0  0  0  0  0  0  0  0  0
    2.6600   -1.3300    0.0000 O   0  0  0  0  0  0  0  0  0  0  0  0
  1  2  1  0  0  0  0 
  1  3  1  0  0  0  0 
  1  4  1  0  0  0  0 
  1  5  1  0  0  0  0 
M  END
> <Name>
2-Propanol, 2-methyl-

> <Source>
DSSTox2DMolFile

> <Tox>
1.432

> <CAS>
75-65-0

$$$$

  CDK

  6  5  0  0  0  0  0  0  0  0999 V2000
    0.3634    0.2657    0.0074 C   0  0  0  0  0  0  0  0  0  0  0  0
   -0.5453   -0.2625   -1.0443 C   0  0  0  0  0  0  0  0  0  0  0  0
    0.6922    1.9500   -0.1072 Cl  0  0  0  0  0  0  0  0  0  0  0  0
   -0.1083   -0.2005    1.5893 Cl  0  0  0  0  0  0  0  0  0  0  0  0
    2.0876   -0.5488   -0.2408 Br  0  0  0  0  0  0  0  0  0  0  0  0
   -2.3082   -0.2158   -0.2195 Br  0  0  0  0  0  0  0  0  0  0  0  0
  1  2  1  0  0  0  0 
  1  3  1  0  0  0  0 
  1  4  1  0  0  0  0 
  1  5  1  0  0  0  0 
  2  6  1  0  0  0  0 
M  END
> <Name>
Ethane, 1,2-dibromo-1,1-dichloro-

> <Source>
DougDB3DMolFile

> <Tox>
3.098

> <CAS>
75-81-0

$$$$

  CDK

  7  6  0  0  0  0  0  0  0  0999 V2000
    1.1520   -1.3284    0.0000 C   0  0  0  0  0  0  0  0  0  0  0  0
    2.3075   -1.9857    0.0000 C   0  0  0  0  0  0  0  0  0  0  0  0
    0.0000   -1.9857    0.0000 O   0  0  0  0  0  0  0  0  0  0  0  0
    1.1520   -0.0000    0.0000 O   0  0  0  0  0  0  0  0  0  0  0  0
    3.4595   -2.6569    0.0000 C   0  0  0  0  0  0  0  0  0  0  0  0
    2.9613   -0.8303    0.0000 C   0  0  0  0  0  0  0  0  0  0  0  0
    1.6329   -3.1378    0.0000 C   0  0  0  0  0  0  0  0  0  0  0  0
  1  2  1  0  0  0  0 
  1  3  1  0  0  0  0 
  1  4  2  0  0  0  0 
  2  5  1  0  0  0  0 
  2  6  1  0  0  0  0 
  2  7  1  0  0  0  0 
M  END
> <Name>
Propanoic acid, 2,2-dimethyl-

> <Source>
DSSTox2DMolFile

> <Tox>
2.055

> <CAS>
75-98-9

$$$$

  CDK

 19 20  0  0  0  0  0  0  0  0999 V2000
    3.9312   -4.2402    0.0000 C   0  0  0  0  0  0  0  0  0  0  0  0
    3.5760   -2.5951    0.0000 C   0  0  0  0  0  0  0  0  0  0  0  0
    2.6260   -4.2402    0.0000 C   0  0  0  0  0  0  0  0  0  0  0  0
    5.1129   -3.6686    0.0000 C   0  0  0  0  0  0  0  0  0  0  0  0
    3.6455   -5.5145    0.0000 C   0  0  0  0  0  0  0  0  0  0  0  0
    2.3016   -2.1857    0.0000 C   0  0  0  0  0  0  0  0  0  0  0  0
    4.5028   -1.6683    0.0000 C   0  0  0  0  0  0  0  0  0  0  0  0
    1.9695   -3.1048    0.0000 O   0  0  0  0  0  0  0  0  0  0  0  0
    1.9695   -5.3755    0.0000 O   0  0  0  0  0  0  0  0  0  0  0  0
    6.2946   -4.2402    0.0000 C   0  0  0  0  0  0  0  0  0  0  0  0
    4.4641   -6.5418    0.0000 C   0  0  0  0  0  0  0  0  0  0  0  0
    2.0235   -0.9268    0.0000 C   0  0  0  0  0  0  0  0  0  0  0  0
    4.2247   -0.4016    0.0000 C   0  0  0  0  0  0  0  0  0  0  0  0
    0.6565   -5.3755    0.0000 C   0  0  0  0  0  0  0  0  0  0  0  0
    6.5881   -5.5145    0.0000 C   0  0  0  0  0  0  0  0  0  0  0  0
    5.7694   -6.5418    0.0000 N   0  0  0  0  0  0  0  0  0  0  0  0
    2.9581   -0.0000    0.0000 C   0  0  0  0  0  0  0  0  0  0  0  0
    0.0000   -6.5109    0.0000 C   0  0  0  0  0  0  0  0  0  0  0  0
    6.3409   -7.7234    0.0000 C   0  0  0  0  0  0  0  0  0  0  0  0
  1  2  1  0  0  0  0 
  1  3  1  0  0  0  0 
  1  4  1  0  0  0  0 
  1  5  1  0  0  0  0 
  2  6  2  0  0  0  0 
  2  7  1  0  0  0  0 
  3  8  2  0  0  0  0 
  3  9  1  0  0  0  0 
  4 10  1  0  0  0  0 
 11  5  1  0  0  0  0 
  6 12  1  0  0  0  0 
 13  7  2  0  0  0  0 
  9 14  1  0  0  0  0 
 10 15  1  0  0  0  0 
 16 11  1  0  0  0  0 
 12 17  2  0  0  0  0 
 17 13  1  0  0  0  0 
 14 18  1  0  0  0  0 
 15 16  1  0  0  0  0 
 16 19  1  0  0  0  0 
M  END
> <Name>
Azepine-4-carboxylic acid, hexahydro-1-methyl-4-phenyl-, ethyl ester

> <Source>
DSSTox2DMolFile

> <Tox>
2.867

> <CAS>
77-15-6

$$$$

  CDK

 11 11  0  0  0  0  0  0  0  0999 V2000
    2.3427   -1.3293    0.0000 N   0  0  0  0  0  0  0  0  0  0  0  0
    3.4127   -2.1164    0.0000 C   0  0  0  0  0  0  0  0  0  0  0  0
    1.2680   -2.1164    0.0000 C   0  0  0  0  0  0  0  0  0  0  0  0
    2.3427   -0.0000    0.0000 Br  0  0  0  0  0  0  0  0  0  0  0  0
    3.0120   -3.3844    0.0000 N   0  0  0  0  0  0  0  0  0  0  0  0
    4.6807   -1.7158    0.0000 O   0  0  0  0  0  0  0  0  0  0  0  0
    0.0000   -1.7158    0.0000 O   0  0  0  0  0  0  0  0  0  0  0  0
    1.6686   -3.3844    0.0000 C   0  0  0  0  0  0  0  0  0  0  0  0
    3.7851   -4.4591    0.0000 Br  0  0  0  0  0  0  0  0  0  0  0  0
    0.4667   -3.9265    0.0000 C   0  0  0  0  0  0  0  0  0  0  0  0
    1.5414   -4.7137    0.0000 C   0  0  0  0  0  0  0  0  0  0  0  0
  1  2  1  0  0  0  0 
  1  3  1  0  0  0  0 
  1  4  1  0  0  0  0 
  2  5  1  0  0  0  0 
  2  6  2  0  0  0  0 
  3  7  2  0  0  0  0 
  3  8  1  0  0  0  0 
  5  8  1  0  0  0  0 
  5  9  1  0  0  0  0 
  8 10  1  0  0  0  0 
  8 11  1  0  0  0  0 
M  END
> <Name>
2,4-Imidazolidinedione, 1,3-dibromo-5,5-dimethyl-

> <Source>
DSSTox2DMolFile

> <Tox>
3.058

> <CAS>
77-48-5

$$$$

  CDK

 25 26  0  0  0  0  0  0  0  0999 V2000
    3.5681    3.0153    0.0000 C   0  0  0  0  0  0  0  0  0  0  0  0
    2.5630    2.8645    0.0000 C   0  0  0  0  0  0  0  0  0  0  0  0
    3.4173    4.0204    0.0000 C   0  0  0  0  0  0  0  0  0  0  0  0
    4.5732    3.2163    0.0000 O   0  0  0  0  0  0  0  0  0  0  0  0
    3.5681    2.0102    0.0000 C   0  0  0  0  0  0  0  0  0  0  0  0
    1.7087    3.3671    0.0000 C   0  0  0  0  0  0  0  0  0  0  0  0
    4.1711    4.6737    0.0000 C   0  0  0  0  0  0  0  0  0  0  0  0
    2.4625    4.3722    0.0000 C   0  0  0  0  0  0  0  0  0  0  0  0
    5.3270    2.6132    0.0000 C   0  0  0  0  0  0  0  0  0  0  0  0
    2.7138    1.5076    0.0000 C   0  0  0  0  0  0  0  0  0  0  0  0
    4.4224    1.5076    0.0000 C   0  0  0  0  0  0  0  0  0  0  0  0
    0.8543    2.8645    0.0000 C   0  0  0  0  0  0  0  0  0  0  0  0
    1.7087    4.3722    0.0000 C   0  0  0  0  0  0  0  0  0  0  0  0
    4.0204    5.6788    0.0000 N   0  0  0  0  0  0  0  0  0  0  0  0
    6.2818    2.9148    0.0000 C   0  0  0  0  0  0  0  0  0  0  0  0
    5.1762    1.6082    0.0000 O   0  0  0  0  0  0  0  0  0  0  0  0
    2.7138    0.5025    0.0000 C   0  0  0  0  0  0  0  0  0  0  0  0
    4.4224    0.5025    0.0000 C   0  0  0  0  0  0  0  0  0  0  0  0
    0.0000    3.3671    0.0000 C   0  0  0  0  0  0  0  0  0  0  0  0
    0.8543    4.8747    0.0000 C   0  0  0  0  0  0  0  0  0  0  0  0
    3.0655    6.0306    0.0000 C   0  0  0  0  0  0  0  0  0  0  0  0
    4.7742    6.3321    0.0000 C   0  0  0  0  0  0  0  0  0  0  0  0
    6.4326    3.8696    0.0000 C   0  0  0  0  0  0  0  0  0  0  0  0
    3.5681    0.0000    0.0000 C   0  0  0  0  0  0  0  0  0  0  0  0
    0.0000    4.3722    0.0000 C   0  0  0  0  0  0  0  0  0  0  0  0
  1  2  1  0  0  0  0 
  1  3  1  0  0  0  0 
  1  4  1  0  0  0  0 
  1  5  1  0  0  0  0 
  2  6  1  0  0  0  0 
  3  7  1  0  0  0  0 
  3  8  1  0  0  0  0 
  4  9  1  0  0  0  0 
 10  5  2  0  0  0  0 
  5 11  1  0  0  0  0 
  6 12  2  0  0  0  0 
 13  6  1  0  0  0  0 
  7 14  1  0  0  0  0 
  9 15  1  0  0  0  0 
  9 16  2  0  0  0  0 
 17 10  1  0  0  0  0 
 11 18  2  0  0  0  0 
 12 19  1  0  0  0  0 
 20 13  2  0  0  0  0 
 14 21  1  0  0  0  0 
 14 22  1  0  0  0  0 
 15 23  1  0  0  0  0 
 24 17  2  0  0  0  0 
 18 24  1  0  0  0  0 
 19 25  2  0  0  0  0 
 25 20  1  0  0  0  0 
M  END
> <Name>
2-Butanol, 4-(dimethylamino)-3-methyl-1,2-diphenyl-, propionate (ester)

> <Source>
NIST2DMolFile

> <Tox>
2.535

> <CAS>
77-50-9

$$$$

  CDK

 19 21  0  0  0  0  0  0  0  0999 V2000
    4.8269    2.8075    0.0000 C   0  0  0  0  0  0  0  0  0  0  0  0
    5.1223    3.7926    0.0000 C   0  0  0  0  0  0  0  0  0  0  0  0
    3.8911    2.5119    0.0000 C   0  0  0  0  0  0  0  0  0  0  0  0
    5.3686    2.0686    0.0000 C   0  0  0  0  0  0  0  0  0  0  0  0
    3.8911    1.5269    0.0000 C   0  0  0  0  0  0  0  0  0  0  0  0
    2.8074    2.1179    0.0000 C   0  0  0  0  0  0  0  0  0  0  0  0
    3.1029    3.1029    0.0000 C   0  0  0  0  0  0  0  0  0  0  0  0
    4.8760    1.2313    0.0000 C   0  0  0  0  0  0  0  0  0  0  0  0
    3.1522    0.8865    0.0000 C   0  0  0  0  0  0  0  0  0  0  0  0
    2.1671    1.1328    0.0000 C   0  0  0  0  0  0  0  0  0  0  0  0
    2.1671    2.8568    0.0000 C   0  0  0  0  0  0  0  0  0  0  0  0
    3.8911    0.2955    0.0000 C   0  0  0  0  0  0  0  0  0  0  0  0
    2.7581    0.0000    0.0000 C   0  0  0  0  0  0  0  0  0  0  0  0
    1.7238    1.9701    0.0000 C   0  0  0  0  0  0  0  0  0  0  0  0
    0.8373    2.4627    0.0000 O   0  0  0  0  0  0  0  0  0  0  0  0
    0.9033    1.4964    0.0000 C   0  0  0  0  0  0  0  0  0  0  0  0
    0.8373    3.3985    0.0000 C   0  0  0  0  0  0  0  0  0  0  0  0
    1.7238    3.9896    0.0000 C   0  0  0  0  0  0  0  0  0  0  0  0
    0.0000    3.9402    0.0000 O   0  0  0  0  0  0  0  0  0  0  0  0
  1  2  1  0  0  0  0 
  3  1  1  0  0  0  0 
  1  4  1  0  0  0  0 
  3  5  1  0  0  0  0 
  6  3  1  0  0  0  0 
  7  3  1  0  0  0  0 
  4  8  1  0  0  0  0 
  8  5  1  0  0  0  0 
  5  9  1  0  0  0  0 
 10  6  1  0  0  0  0 
 11  7  1  0  0  0  0 
  9 10  1  0  0  0  0 
  9 12  1  0  0  0  0 
  9 13  1  0  0  0  0 
 10 14  1  0  0  0  0 
 14 11  1  0  0  0  0 
 14 15  1  6  0  0  0 
 14 16  1  0  0  0  0 
 15 17  1  0  0  0  0 
 17 18  1  0  0  0  0 
 17 19  2  0  0  0  0 
M  END
> <Name>
(3R-(3alpha,3Abeta,6alpha,7beta,8aalpha))-octahydro-3,6,8,8-tetramethyl-1H-3a,7-methanoazulen-5-yl acetate

> <Source>
NIST2DMolFile

> <Tox>
0.771

> <CAS>
77-54-3

$$$$

  CDK

 10 12  0  0  0  0  0  0  0  0999 V2000
    1.3067   -1.7293    0.0000 C   0  0  0  0  0  0  0  0  0  0  0  0
    1.2144   -2.7591    0.0000 C   0  0  0  0  0  0  0  0  0  0  0  0
    3.1282   -0.9375    0.0000 C   0  0  0  0  0  0  0  0  0  0  0  0
    0.5586   -1.4961    0.0000 C   0  0  0  0  0  0  0  0  0  0  0  0
    2.8951   -1.8216    0.0000 C   0  0  0  0  0  0  0  0  0  0  0  0
    0.4663   -2.9437    0.0000 C   0  0  0  0  0  0  0  0  0  0  0  0
    2.4773   -0.0000    0.0000 C   0  0  0  0  0  0  0  0  0  0  0  0
    4.8575   -1.5884    0.0000 C   0  0  0  0  0  0  0  0  0  0  0  0
    0.0000   -2.1956    0.0000 C   0  0  0  0  0  0  0  0  0  0  0  0
    4.6244   -2.5211    0.0000 C   0  0  0  0  0  0  0  0  0  0  0  0
  1  2  1  0  0  0  0 
  1  3  1  0  0  0  0 
  1  4  1  0  0  0  0 
  2  5  1  0  0  0  0 
  2  6  1  0  0  0  0 
  3  7  1  0  0  0  0 
  3  8  1  0  0  0  0 
  4  9  2  0  0  0  0 
  5  7  1  0  0  0  0 
  5 10  1  0  0  0  0 
  6  9  1  0  0  0  0 
 10  8  2  0  0  0  0 
M  END
> <Name>
4,7-Methano-1H-indene, 3a,4,7,7a-tetrahydro-

> <Source>
DSSTox2DMolFile

> <Tox>
2.573

> <CAS>
77-73-6

$$$$

  CDK

 19 18  0  0  0  0  0  0  0  0999 V2000
    2.9845    1.7199    0.0000 C   0  0  0  0  0  0  0  0  0  0  0  0
    3.9962    1.7199    0.0000 C   0  0  0  0  0  0  0  0  0  0  0  0
    2.4786    0.9105    0.0000 C   0  0  0  0  0  0  0  0  0  0  0  0
    4.9573    1.7199    0.0000 C   0  0  0  0  0  0  0  0  0  0  0  0
    3.9962    0.7588    0.0000 O   0  0  0  0  0  0  0  0  0  0  0  0
    3.9962    2.7316    0.0000 C   0  0  0  0  0  0  0  0  0  0  0  0
    1.4669    0.9105    0.0000 O   0  0  0  0  0  0  0  0  0  0  0  0
    3.0351    0.0506    0.0000 O   0  0  0  0  0  0  0  0  0  0  0  0
    5.4631    0.9105    0.0000 C   0  0  0  0  0  0  0  0  0  0  0  0
    3.0856    3.2374    0.0000 O   0  0  0  0  0  0  0  0  0  0  0  0
    4.8561    3.2880    0.0000 O   0  0  0  0  0  0  0  0  0  0  0  0
    1.0117    0.0000    0.0000 C   0  0  0  0  0  0  0  0  0  0  0  0
    4.9573    0.0506    0.0000 O   0  0  0  0  0  0  0  0  0  0  0  0
    6.4748    0.9105    0.0000 O   0  0  0  0  0  0  0  0  0  0  0  0
    5.7160    2.7821    0.0000 C   0  0  0  0  0  0  0  0  0  0  0  0
    0.0000    0.0000    0.0000 C   0  0  0  0  0  0  0  0  0  0  0  0
    6.9806    0.0506    0.0000 C   0  0  0  0  0  0  0  0  0  0  0  0
    6.5760    3.2880    0.0000 C   0  0  0  0  0  0  0  0  0  0  0  0
    7.9923    0.0506    0.0000 C   0  0  0  0  0  0  0  0  0  0  0  0
  1  2  1  0  0  0  0 
  1  3  1  0  0  0  0 
  2  4  1  0  0  0  0 
  2  5  1  0  0  0  0 
  2  6  1  0  0  0  0 
  3  7  1  0  0  0  0 
  3  8  2  0  0  0  0 
  4  9  1  0  0  0  0 
  6 10  2  0  0  0  0 
  6 11  1  0  0  0  0 
  7 12  1  0  0  0  0 
  9 13  2  0  0  0  0 
  9 14  1  0  0  0  0 
 11 15  1  0  0  0  0 
 12 16  1  0  0  0  0 
 14 17  1  0  0  0  0 
 15 18  1  0  0  0  0 
 17 19  1  0  0  0  0 
M  END
> <Name>
2-Hydroxy-1,2,3-propanetricarboxylic acid, delta triethyl ester

> <Source>
NIST2DMolFile

> <Tox>
1.671

> <CAS>
77-93-0

$$$$

  CDK

 12 11  0  0  0  0  0  0  0  0999 V2000
    1.5059    2.5099    0.0000 O   0  0  0  0  0  0  0  0  0  0  0  0
    2.5601    2.5099    0.0000 Si  0  0  0  0  0  0  0  0  0  0  0  0
    1.0040    3.3633    0.0000 C   0  0  0  0  0  0  0  0  0  0  0  0
    3.5139    2.5099    0.0000 O   0  0  0  0  0  0  0  0  0  0  0  0
    2.5601    1.5561    0.0000 O   0  0  0  0  0  0  0  0  0  0  0  0
    2.5601    3.5139    0.0000 C   0  0  0  0  0  0  0  0  0  0  0  0
    0.0000    3.3633    0.0000 C   0  0  0  0  0  0  0  0  0  0  0  0
    4.0158    1.6063    0.0000 C   0  0  0  0  0  0  0  0  0  0  0  0
    1.6565    1.0040    0.0000 C   0  0  0  0  0  0  0  0  0  0  0  0
    3.4135    4.0158    0.0000 C   0  0  0  0  0  0  0  0  0  0  0  0
    4.9696    1.6063    0.0000 C   0  0  0  0  0  0  0  0  0  0  0  0
    1.6565    0.0000    0.0000 C   0  0  0  0  0  0  0  0  0  0  0  0
  1  2  1  0  0  0  0 
  1  3  1  0  0  0  0 
  2  4  1  0  0  0  0 
  2  5  1  0  0  0  0 
  2  6  1  0  0  0  0 
  3  7  1  0  0  0  0 
  4  8  1  0  0  0  0 
  5  9  1  0  0  0  0 
  6 10  2  0  0  0  0 
  8 11  1  0  0  0  0 
  9 12  1  0  0  0  0 
M  END
> <Name>
Silane, ethenyltriethoxy-

> <Source>
NIST2DMolFile

> <Tox>
1.421

> <CAS>
78-08-0

$$$$

  CDK

 15 16  0  0  0  0  0  0  0  0999 V2000
    3.0145    1.7584    0.0000 C   0  0  0  0  0  0  0  0  0  0  0  0
    3.5169    0.9043    0.0000 C   0  0  0  0  0  0  0  0  0  0  0  0
    2.0096    1.7584    0.0000 O   0  0  0  0  0  0  0  0  0  0  0  0
    3.0145    0.0000    0.0000 C   0  0  0  0  0  0  0  0  0  0  0  0
    4.0695    1.7584    0.0000 C   0  0  0  0  0  0  0  0  0  0  0  0
    4.0193    0.0502    0.0000 C   0  0  0  0  0  0  0  0  0  0  0  0
    1.5072    0.9043    0.0000 C   0  0  0  0  0  0  0  0  0  0  0  0
    2.0096    0.0000    0.0000 O   0  0  0  0  0  0  0  0  0  0  0  0
    5.0241    1.7584    0.0000 O   0  0  0  0  0  0  0  0  0  0  0  0
    5.1246    0.0502    0.0000 O   0  0  0  0  0  0  0  0  0  0  0  0
    0.5024    0.9043    0.0000 C   0  0  0  0  0  0  0  0  0  0  0  0
    5.5767    0.9546    0.0000 C   0  0  0  0  0  0  0  0  0  0  0  0
    0.0000    1.7584    0.0000 C   0  0  0  0  0  0  0  0  0  0  0  0
    6.5313    0.9546    0.0000 C   0  0  0  0  0  0  0  0  0  0  0  0
    7.0840    0.2010    0.0000 C   0  0  0  0  0  0  0  0  0  0  0  0
  1  2  1  0  0  0  0 
  3  1  1  0  0  0  0 
  2  4  1  0  0  0  0 
  2  5  1  0  0  0  0 
  6  2  1  0  0  0  0 
  7  3  1  0  0  0  0 
  4  8  1  0  0  0  0 
  5  9  1  0  0  0  0 
 10  6  1  0  0  0  0 
  8  7  1  0  0  0  0 
  7 11  1  0  0  0  0 
  9 12  1  0  0  0  0 
 12 10  1  0  0  0  0 
 11 13  2  0  0  0  0 
 12 14  1  0  0  0  0 
 14 15  2  0  0  0  0 
M  END
> <Name>
2,4,8,10-Tetraoxaspiro(5,5)undecane, 3,9-diethenyl- (9CI)

> <Source>
NIST2DMolFile

> <Tox>
1.815

> <CAS>
78-19-3

$$$$

  CDK

 11 10  0  0  0  0  0  0  0  0999 V2000
    2.7907   -1.5055    0.0000 O   0  0  0  0  0  0  0  0  0  0  0  0
    3.4577   -2.6622    0.0000 P   0  0  0  0  0  0  0  0  0  0  0  0
    4.6083   -1.9951    0.0000 O   0  0  0  0  0  0  0  0  0  0  0  0
    4.1248   -3.8127    0.0000 O   0  0  0  0  0  0  0  0  0  0  0  0
    2.3072   -3.3231    0.0000 O   0  0  0  0  0  0  0  0  0  0  0  0
    4.6083   -0.6609    0.0000 C   0  0  0  0  0  0  0  0  0  0  0  0
    5.4528   -3.8127    0.0000 C   0  0  0  0  0  0  0  0  0  0  0  0
    1.1505   -2.6622    0.0000 C   0  0  0  0  0  0  0  0  0  0  0  0
    3.4577   -0.0000    0.0000 C   0  0  0  0  0  0  0  0  0  0  0  0
    6.1199   -2.6622    0.0000 C   0  0  0  0  0  0  0  0  0  0  0  0
    0.0000   -3.3231    0.0000 C   0  0  0  0  0  0  0  0  0  0  0  0
  1  2  2  0  0  0  0 
  2  3  1  0  0  0  0 
  2  4  1  0  0  0  0 
  2  5  1  0  0  0  0 
  3  6  1  0  0  0  0 
  4  7  1  0  0  0  0 
  5  8  1  0  0  0  0 
  6  9  1  0  0  0  0 
  7 10  1  0  0  0  0 
  8 11  1  0  0  0  0 
M  END
> <Name>
Phosphoric acid, triethyl ester

> <Source>
DSSTox2DMolFile

> <Tox>
2.194

> <CAS>
78-40-0

$$$$

  CDK

 20 19  0  0  0  0  0  0  0  0999 V2000
    5.3173   -3.4641    0.0000 P   0  0  0  0  0  0  0  0  0  0  0  0
    6.6489   -3.4641    0.0000 O   0  0  0  0  0  0  0  0  0  0  0  0
    3.9949   -3.4641    0.0000 O   0  0  0  0  0  0  0  0  0  0  0  0
    5.3173   -4.7865    0.0000 O   0  0  0  0  0  0  0  0  0  0  0  0
    5.3173   -2.1325    0.0000 O   0  0  0  0  0  0  0  0  0  0  0  0
    7.3194   -2.3094    0.0000 C   0  0  0  0  0  0  0  0  0  0  0  0
    3.3245   -4.6095    0.0000 C   0  0  0  0  0  0  0  0  0  0  0  0
    6.4720   -5.4569    0.0000 C   0  0  0  0  0  0  0  0  0  0  0  0
    8.6510   -2.3094    0.0000 C   0  0  0  0  0  0  0  0  0  0  0  0
    1.9928   -4.6095    0.0000 C   0  0  0  0  0  0  0  0  0  0  0  0
    6.4720   -6.7886    0.0000 C   0  0  0  0  0  0  0  0  0  0  0  0
    9.3122   -1.1547    0.0000 C   0  0  0  0  0  0  0  0  0  0  0  0
    9.3122   -3.4641    0.0000 Cl  0  0  0  0  0  0  0  0  0  0  0  0
    1.3316   -5.7642    0.0000 C   0  0  0  0  0  0  0  0  0  0  0  0
    1.3316   -3.4641    0.0000 Cl  0  0  0  0  0  0  0  0  0  0  0  0
    7.6267   -7.4497    0.0000 C   0  0  0  0  0  0  0  0  0  0  0  0
    5.3173   -7.4497    0.0000 Cl  0  0  0  0  0  0  0  0  0  0  0  0
    8.6510   -0.0000    0.0000 Cl  0  0  0  0  0  0  0  0  0  0  0  0
    0.0000   -5.7642    0.0000 Cl  0  0  0  0  0  0  0  0  0  0  0  0
    7.6267   -8.7814    0.0000 Cl  0  0  0  0  0  0  0  0  0  0  0  0
  1  2  1  0  0  0  0 
  1  3  1  0  0  0  0 
  1  4  1  0  0  0  0 
  1  5  2  0  0  0  0 
  2  6  1  0  0  0  0 
  3  7  1  0  0  0  0 
  4  8  1  0  0  0  0 
  6  9  1  0  0  0  0 
  7 10  1  0  0  0  0 
  8 11  1  0  0  0  0 
 12  9  1  0  0  0  0 
  9 13  1  0  0  0  0 
 14 10  1  0  0  0  0 
 10 15  1  0  0  0  0 
 16 11  1  0  0  0  0 
 11 17  1  0  0  0  0 
 12 18  1  0  0  0  0 
 14 19  1  0  0  0  0 
 20 16  1  0  0  0  0 
M  END
> <Name>
1-Propanol, 2,3-dichloro-, phosphate (3:1)

> <Source>
DSSTox2DMolFile

> <Tox>
2.183

> <CAS>
78-43-3

$$$$

  CDK

  9  8  0  0  0  0  0  0  0  0999 V2000
    1.5062    1.0041    0.0000 O   0  0  0  0  0  0  0  0  0  0  0  0
    2.5104    1.0041    0.0000 Si  0  0  0  0  0  0  0  0  0  0  0  0
    1.0041    0.1004    0.0000 C   0  0  0  0  0  0  0  0  0  0  0  0
    3.5145    1.0041    0.0000 O   0  0  0  0  0  0  0  0  0  0  0  0
    2.5104    1.9581    0.0000 C   0  0  0  0  0  0  0  0  0  0  0  0
    2.5104    0.0000    0.0000 C   0  0  0  0  0  0  0  0  0  0  0  0
    0.0000    0.1506    0.0000 C   0  0  0  0  0  0  0  0  0  0  0  0
    4.0166    0.1506    0.0000 C   0  0  0  0  0  0  0  0  0  0  0  0
    5.0207    0.1506    0.0000 C   0  0  0  0  0  0  0  0  0  0  0  0
  1  2  1  0  0  0  0 
  1  3  1  0  0  0  0 
  2  4  1  0  0  0  0 
  2  5  1  0  0  0  0 
  2  6  1  0  0  0  0 
  3  7  1  0  0  0  0 
  4  8  1  0  0  0  0 
  8  9  1  0  0  0  0 
M  END
> <Name>
Silane, diethoxydimethyl-

> <Source>
NIST2DMolFile

> <Tox>
1.204

> <CAS>
78-62-6

$$$$

  CDK

 12 11  0  0  0  0  0  0  0  0999 V2000
    5.9782   -1.3301    0.0000 C   0  0  0  0  0  0  0  0  0  0  0  0
    5.9782   -2.6602    0.0000 C   0  0  0  0  0  0  0  0  0  0  0  0
    5.9782   -0.0000    0.0000 N   0  0  0  0  0  0  0  0  0  0  0  0
    7.3083   -2.6602    0.0000 C   0  0  0  0  0  0  0  0  0  0  0  0
    5.9782   -3.9903    0.0000 C   0  0  0  0  0  0  0  0  0  0  0  0
    4.6481   -2.6602    0.0000 N   0  0  0  0  0  0  0  0  0  0  0  0
    3.9903   -3.8149    0.0000 N   0  0  0  0  0  0  0  0  0  0  0  0
    2.6602   -3.8149    0.0000 C   0  0  0  0  0  0  0  0  0  0  0  0
    1.3301   -3.8149    0.0000 C   0  0  0  0  0  0  0  0  0  0  0  0
    2.6602   -5.1450    0.0000 C   0  0  0  0  0  0  0  0  0  0  0  0
    2.6602   -2.4848    0.0000 C   0  0  0  0  0  0  0  0  0  0  0  0
    0.0000   -3.8149    0.0000 N   0  0  0  0  0  0  0  0  0  0  0  0
  1  2  1  0  0  0  0 
  1  3  3  0  0  0  0 
  2  4  1  0  0  0  0 
  2  5  1  0  0  0  0 
  2  6  1  0  0  0  0 
  7  6  2  0  0  0  0 
  8  7  1  0  0  0  0 
  9  8  1  0  0  0  0 
  8 10  1  0  0  0  0 
  8 11  1  0  0  0  0 
  9 12  3  0  0  0  0 
M  END
> <Name>
2,2'-Dimethyl-2,2'-azodipropiononitrile

> <Source>
DSSTox2DMolFile

> <Tox>
3.215

> <CAS>
78-67-1

$$$$

  CDK

  8  8  0  0  0  0  0  0  0  0999 V2000
    0.8698    0.6652    0.0000 C   0  0  0  0  0  0  0  0  0  0  0  0
    1.5350    0.0000    0.0000 O   0  0  0  0  0  0  0  0  0  0  0  0
    1.5350    1.3815    0.0000 C   0  0  0  0  0  0  0  0  0  0  0  0
    2.2513    0.6652    0.0000 C   0  0  0  0  0  0  0  0  0  0  0  0
    2.0467    2.2513    0.0000 C   0  0  0  0  0  0  0  0  0  0  0  0
    1.0745    2.2513    0.0000 C   0  0  0  0  0  0  0  0  0  0  0  0
    3.0700    2.2513    0.0000 Cl  0  0  0  0  0  0  0  0  0  0  0  0
    0.0000    2.2513    0.0000 Cl  0  0  0  0  0  0  0  0  0  0  0  0
  2  1  1  0  0  0  0 
  1  3  1  0  0  0  0 
  4  2  1  0  0  0  0 
  3  4  1  0  0  0  0 
  3  5  1  0  0  0  0 
  3  6  1  0  0  0  0 
  5  7  1  0  0  0  0 
  6  8  1  0  0  0  0 
M  END
> <Name>
Oxetane, 3,3-bis(chloromethyl)-

> <Source>
NIST2DMolFile

> <Tox>
2.412

> <CAS>
78-71-7

$$$$

  CDK

  5  4  0  0  0  0  0  0  0  0999 V2000
    1.1488   -0.6693    0.0000 C   0  0  0  0  0  0  0  0  0  0  0  0
    2.3011   -1.3420    0.0000 C   0  0  0  0  0  0  0  0  0  0  0  0
    0.0000   -0.0000    0.0000 N   0  0  0  0  0  0  0  0  0  0  0  0
    3.4500   -0.6693    0.0000 C   0  0  0  0  0  0  0  0  0  0  0  0
    2.3011   -2.6668    0.0000 C   0  0  0  0  0  0  0  0  0  0  0  0
  1  2  1  0  0  0  0 
  1  3  3  0  0  0  0 
  2  4  1  0  0  0  0 
  2  5  1  0  0  0  0 
M  END
> <Name>
Propanenitrile, 2-methyl-

> <Source>
DSSTox2DMolFile

> <Tox>
3.141

> <CAS>
78-82-0

$$$$

  CDK

  5  4  0  0  0  0  0  0  0  0999 V2000
   -0.8398    0.6197   -0.0115 C   0  0  0  0  0  0  0  0  0  0  0  0
   -1.8389   -0.0617    0.0094 O   0  0  0  0  0  0  0  0  0  0  0  0
    0.5424    0.0659   -0.0022 C   0  0  0  0  0  0  0  0  0  0  0  0
    0.7107   -1.4085   -0.0031 C   0  0  0  0  0  0  0  0  0  0  0  0
    1.5831    0.9017    0.0066 C   0  0  0  0  0  0  0  0  0  0  0  0
  1  2  2  0  0  0  0 
  1  3  1  0  0  0  0 
  3  4  1  0  0  0  0 
  3  5  2  0  0  0  0 
M  END
> <Name>
2-Propenal, 2-methyl-

> <Source>
DougDB3DMolFile

> <Tox>
2.700

> <CAS>
78-85-3

$$$$

  CDK

  5  4  0  0  0  0  0  0  0  0999 V2000
    2.3056   -1.3308    0.0000 C   0  0  0  0  0  0  0  0  0  0  0  0
    3.4567   -1.9945    0.0000 C   0  0  0  0  0  0  0  0  0  0  0  0
    2.3056   -0.0000    0.0000 Cl  0  0  0  0  0  0  0  0  0  0  0  0
    1.1511   -1.9945    0.0000 C   0  0  0  0  0  0  0  0  0  0  0  0
    0.0000   -1.3308    0.0000 Cl  0  0  0  0  0  0  0  0  0  0  0  0
  1  2  2  0  0  0  0 
  1  3  1  0  0  0  0 
  1  4  1  0  0  0  0 
  4  5  1  0  0  0  0 
M  END
> <Name>
1-Propene, 2,3-dichloro-

> <Source>
DSSTox2DMolFile

> <Tox>
2.540

> <CAS>
78-88-6

$$$$

  CDK

  5  4  0  0  0  0  0  0  0  0999 V2000
    3.4567   -1.9945    0.0000 C   0  0  0  0  0  0  0  0  0  0  0  0
    2.3056   -1.3308    0.0000 C   0  0  0  0  0  0  0  0  0  0  0  0
    1.1511   -1.9945    0.0000 C   0  0  0  0  0  0  0  0  0  0  0  0
    2.3056   -0.0000    0.0000 O   0  0  0  0  0  0  0  0  0  0  0  0
    0.0000   -1.3308    0.0000 C   0  0  0  0  0  0  0  0  0  0  0  0
  1  2  1  0  0  0  0 
  2  3  1  0  0  0  0 
  2  4  2  0  0  0  0 
  3  5  1  0  0  0  0 
M  END
> <Name>
Methyl ethyl ketone

> <Source>
DSSTox2DMolFile

> <Tox>
1.421

> <CAS>
78-93-3

$$$$

  CDK

  5  4  0  0  0  0  0  0  0  0999 V2000
    2.6597   -2.3060    0.0000 Cl  0  0  0  0  0  0  0  0  0  0  0  0
    1.9868   -1.1517    0.0000 C   0  0  0  0  0  0  0  0  0  0  0  0
    2.6437   -0.0000    0.0000 O   0  0  0  0  0  0  0  0  0  0  0  0
    0.6569   -1.1517    0.0000 C   0  0  0  0  0  0  0  0  0  0  0  0
    0.0000   -2.3060    0.0000 Cl  0  0  0  0  0  0  0  0  0  0  0  0
  1  2  1  0  0  0  0 
  2  3  2  0  0  0  0 
  2  4  1  0  0  0  0 
  4  5  1  0  0  0  0 
M  END
> <Name>
Acetyl chloride, chloro-

> <Source>
DSSTox2DMolFile

> <Tox>
2.735

> <CAS>
79-04-9

$$$$

  CDK

  5  4  0  0  0  0  0  0  0  0999 V2000
    1.0376   -0.0820   -0.0451 C   0  0  0  0  0  0  0  0  0  0  0  0
   -0.2233   -0.8617   -0.3344 C   0  0  0  0  0  0  0  0  0  0  0  0
    2.1087   -0.6144    0.2295 O   0  0  0  0  0  0  0  0  0  0  0  0
    1.0171    1.3068   -0.1219 N   0  0  0  0  0  0  0  0  0  0  0  0
   -1.6720    0.0609    0.1139 Cl  0  0  0  0  0  0  0  0  0  0  0  0
  1  2  1  0  0  0  0 
  1  3  2  0  0  0  0 
  1  4  1  0  0  0  0 
  2  5  1  0  0  0  0 
M  END
> <Name>
Acetamide, 2-chloro-

> <Source>
DougDB3DMolFile

> <Tox>
2.831

> <CAS>
79-07-2

$$$$

  CDK

  5  4  0  0  0  0  0  0  0  0999 V2000
    2.3056   -0.0000    0.0000 O   0  0  0  0  0  0  0  0  0  0  0  0
    2.3056   -1.3308    0.0000 C   0  0  0  0  0  0  0  0  0  0  0  0
    3.4567   -1.9945    0.0000 O   0  0  0  0  0  0  0  0  0  0  0  0
    1.1511   -1.9945    0.0000 C   0  0  0  0  0  0  0  0  0  0  0  0
    0.0000   -1.3308    0.0000 C   0  0  0  0  0  0  0  0  0  0  0  0
  1  2  2  0  0  0  0 
  2  3  1  0  0  0  0 
  2  4  1  0  0  0  0 
  4  5  1  0  0  0  0 
M  END
> <Name>
Propanoic acid

> <Source>
DSSTox2DMolFile

> <Tox>
1.455

> <CAS>
79-09-4

$$$$

  CDK

  5  4  0  0  0  0  0  0  0  0999 V2000
    0.0000   -1.9945    0.0000 N   0  0  0  0  0  0  0  0  0  0  0  0
    1.1511   -1.3308    0.0000 C   0  0  0  0  0  0  0  0  0  0  0  0
    1.1511   -0.0000    0.0000 S   0  0  0  0  0  0  0  0  0  0  0  0
    2.3056   -1.9945    0.0000 N   0  0  0  0  0  0  0  0  0  0  0  0
    3.4567   -1.3308    0.0000 N   0  0  0  0  0  0  0  0  0  0  0  0
  1  2  1  0  0  0  0 
  2  3  2  0  0  0  0 
  2  4  1  0  0  0  0 
  4  5  1  0  0  0  0 
M  END
> <Name>
Hydrazinecarbothioamide

> <Source>
DSSTox2DMolFile

> <Tox>
3.998

> <CAS>
79-19-6

$$$$

  CDK

  6  5  0  0  0  0  0  0  0  0999 V2000
    1.3307   -0.0000    0.0000 Cl  0  0  0  0  0  0  0  0  0  0  0  0
    1.9943   -1.1509    0.0000 C   0  0  0  0  0  0  0  0  0  0  0  0
    1.3307   -2.3053    0.0000 C   0  0  0  0  0  0  0  0  0  0  0  0
    3.3250   -1.1509    0.0000 Cl  0  0  0  0  0  0  0  0  0  0  0  0
    1.9943   -3.4563    0.0000 Cl  0  0  0  0  0  0  0  0  0  0  0  0
    0.0000   -2.3053    0.0000 Cl  0  0  0  0  0  0  0  0  0  0  0  0
  1  2  1  0  0  0  0 
  2  3  1  0  0  0  0 
  2  4  1  0  0  0  0 
  3  5  1  0  0  0  0 
  3  6  1  0  0  0  0 
M  END
> <Name>
Ethane, 1,1,2,2-tetrachloro-

> <Source>
DSSTox2DMolFile

> <Tox>
2.924

> <CAS>
79-34-5

$$$$

  CDK

  6  5  0  0  0  0  0  0  0  0999 V2000
    1.3307   -0.0000    0.0000 O   0  0  0  0  0  0  0  0  0  0  0  0
    1.9943   -1.1509    0.0000 C   0  0  0  0  0  0  0  0  0  0  0  0
    1.3307   -2.3053    0.0000 C   0  0  0  0  0  0  0  0  0  0  0  0
    3.3250   -1.1509    0.0000 Cl  0  0  0  0  0  0  0  0  0  0  0  0
    1.9943   -3.4563    0.0000 Cl  0  0  0  0  0  0  0  0  0  0  0  0
    0.0000   -2.3053    0.0000 Cl  0  0  0  0  0  0  0  0  0  0  0  0
  1  2  2  0  0  0  0 
  2  3  1  0  0  0  0 
  2  4  1  0  0  0  0 
  3  5  1  0  0  0  0 
  3  6  1  0  0  0  0 
M  END
> <Name>
Acetyl chloride, dichloro-

> <Source>
DSSTox2DMolFile

> <Tox>
1.778

> <CAS>
79-36-7

$$$$

  CDK

  6  5  0  0  0  0  0  0  0  0999 V2000
    3.3250   -1.1509    0.0000 O   0  0  0  0  0  0  0  0  0  0  0  0
    1.9943   -1.1509    0.0000 C   0  0  0  0  0  0  0  0  0  0  0  0
    1.3307   -0.0000    0.0000 O   0  0  0  0  0  0  0  0  0  0  0  0
    1.3307   -2.3053    0.0000 C   0  0  0  0  0  0  0  0  0  0  0  0
    1.9943   -3.4563    0.0000 Cl  0  0  0  0  0  0  0  0  0  0  0  0
    0.0000   -2.3053    0.0000 Cl  0  0  0  0  0  0  0  0  0  0  0  0
  1  2  1  0  0  0  0 
  2  3  2  0  0  0  0 
  2  4  1  0  0  0  0 
  4  5  1  0  0  0  0 
  4  6  1  0  0  0  0 
M  END
> <Name>
Acetic acid, dichloro-

> <Source>
DSSTox2DMolFile

> <Tox>
1.660

> <CAS>
79-43-6

$$$$

  CDK

 18 18  0  0  0  0  0  0  0  0999 V2000
    0.5007    1.7523    0.0000 C   0  0  0  0  0  0  0  0  0  0  0  0
    1.5020    1.7523    0.0000 C   0  0  0  0  0  0  0  0  0  0  0  0
    0.0000    0.9012    0.0000 C   0  0  0  0  0  0  0  0  0  0  0  0
    1.5020    0.7510    0.0000 C   0  0  0  0  0  0  0  0  0  0  0  0
    1.5020    2.7537    0.0000 C   0  0  0  0  0  0  0  0  0  0  0  0
    2.5033    1.7523    0.0000 C   0  0  0  0  0  0  0  0  0  0  0  0
    3.0040    2.6035    0.0000 C   0  0  0  0  0  0  0  0  0  0  0  0
    3.0040    0.9012    0.0000 C   0  0  0  0  0  0  0  0  0  0  0  0
    2.5033    3.5047    0.0000 O   0  0  0  0  0  0  0  0  0  0  0  0
    4.0053    2.6035    0.0000 C   0  0  0  0  0  0  0  0  0  0  0  0
    4.0053    0.9012    0.0000 C   0  0  0  0  0  0  0  0  0  0  0  0
    4.5060    1.7523    0.0000 C   0  0  0  0  0  0  0  0  0  0  0  0
    4.5060    0.0000    0.0000 O   0  0  0  0  0  0  0  0  0  0  0  0
    5.5073    1.7523    0.0000 C   0  0  0  0  0  0  0  0  0  0  0  0
    6.5087    1.7523    0.0000 C   0  0  0  0  0  0  0  0  0  0  0  0
    5.5073    2.7537    0.0000 C   0  0  0  0  0  0  0  0  0  0  0  0
    5.5073    0.7510    0.0000 C   0  0  0  0  0  0  0  0  0  0  0  0
    7.0093    2.6035    0.0000 C   0  0  0  0  0  0  0  0  0  0  0  0
  1  2  1  0  0  0  0 
  1  3  1  0  0  0  0 
  2  4  1  0  0  0  0 
  2  5  1  0  0  0  0 
  2  6  1  0  0  0  0 
  7  6  2  0  0  0  0 
  6  8  1  0  0  0  0 
  7  9  1  0  0  0  0 
 10  7  1  0  0  0  0 
  8 11  2  0  0  0  0 
 12 10  2  0  0  0  0 
 11 12  1  0  0  0  0 
 11 13  1  0  0  0  0 
 12 14  1  0  0  0  0 
 14 15  1  0  0  0  0 
 14 16  1  0  0  0  0 
 14 17  1  0  0  0  0 
 15 18  1  0  0  0  0 
M  END
> <Name>
1,4-Benzenediol, 2,5-bis(1,1-dimethylpropyl)-

> <Source>
NIST2DMolFile

> <Tox>
2.098

> <CAS>
79-74-3

$$$$

  CDK

 11 11  0  0  0  0  0  0  0  0999 V2000
    0.5032    1.0063    0.0000 O   0  0  0  0  0  0  0  0  0  0  0  0
    1.5095    1.0063    0.0000 S   0  0  0  0  0  0  0  0  0  0  0  0
    0.0000    0.1510    0.0000 C   0  0  0  0  0  0  0  0  0  0  0  0
    1.5095    2.0127    0.0000 O   0  0  0  0  0  0  0  0  0  0  0  0
    1.5095    0.0000    0.0000 O   0  0  0  0  0  0  0  0  0  0  0  0
    2.5158    1.0063    0.0000 C   0  0  0  0  0  0  0  0  0  0  0  0
    3.0190    1.8617    0.0000 C   0  0  0  0  0  0  0  0  0  0  0  0
    3.0190    0.1510    0.0000 C   0  0  0  0  0  0  0  0  0  0  0  0
    4.0253    1.8617    0.0000 C   0  0  0  0  0  0  0  0  0  0  0  0
    4.0253    0.1510    0.0000 C   0  0  0  0  0  0  0  0  0  0  0  0
    4.5285    1.0063    0.0000 C   0  0  0  0  0  0  0  0  0  0  0  0
  1  2  1  0  0  0  0 
  1  3  1  0  0  0  0 
  2  4  2  0  0  0  0 
  2  5  2  0  0  0  0 
  2  6  1  0  0  0  0 
  7  6  2  0  0  0  0 
  6  8  1  0  0  0  0 
  9  7  1  0  0  0  0 
  8 10  2  0  0  0  0 
 11  9  2  0  0  0  0 
 10 11  1  0  0  0  0 
M  END
> <Name>
Benzenesulfonic acid, methyl ester

> <Source>
NIST2DMolFile

> <Tox>
2.367

> <CAS>
80-18-2

$$$$

  CDK

 12 12  0  0  0  0  0  0  0  0999 V2000
    6.4728   -0.0000    0.0000 C   0  0  0  0  0  0  0  0  0  0  0  0
    5.3220   -0.6652    0.0000 C   0  0  0  0  0  0  0  0  0  0  0  0
    5.3220   -1.9957    0.0000 C   0  0  0  0  0  0  0  0  0  0  0  0
    5.3220   -3.3262    0.0000 C   0  0  0  0  0  0  0  0  0  0  0  0
    6.6525   -1.9957    0.0000 C   0  0  0  0  0  0  0  0  0  0  0  0
    3.9915   -1.9957    0.0000 C   0  0  0  0  0  0  0  0  0  0  0  0
    3.3262   -3.1466    0.0000 C   0  0  0  0  0  0  0  0  0  0  0  0
    3.3262   -0.8449    0.0000 C   0  0  0  0  0  0  0  0  0  0  0  0
    1.9957   -3.1466    0.0000 C   0  0  0  0  0  0  0  0  0  0  0  0
    1.9957   -0.8449    0.0000 C   0  0  0  0  0  0  0  0  0  0  0  0
    1.3305   -1.9957    0.0000 C   0  0  0  0  0  0  0  0  0  0  0  0
    0.0000   -1.9957    0.0000 O   0  0  0  0  0  0  0  0  0  0  0  0
  1  2  1  0  0  0  0 
  2  3  1  0  0  0  0 
  3  4  1  0  0  0  0 
  3  5  1  0  0  0  0 
  3  6  1  0  0  0  0 
  6  7  2  0  0  0  0 
  6  8  1  0  0  0  0 
  7  9  1  0  0  0  0 
 10  8  2  0  0  0  0 
  9 11  2  0  0  0  0 
 11 10  1  0  0  0  0 
 11 12  1  0  0  0  0 
M  END
> <Name>
Phenol, 4-(1,1-dimethylpropyl)-

> <Source>
DSSTox2DMolFile

> <Tox>
1.953

> <CAS>
80-46-6

$$$$

  CDK

 12 12  0  0  0  0  0  0  0  0999 V2000
    0.5029    1.0058    0.0000 O   0  0  0  0  0  0  0  0  0  0  0  0
    1.5087    1.0058    0.0000 S   0  0  0  0  0  0  0  0  0  0  0  0
    0.0000    0.1509    0.0000 C   0  0  0  0  0  0  0  0  0  0  0  0
    1.5087    2.0116    0.0000 O   0  0  0  0  0  0  0  0  0  0  0  0
    1.5087    0.0000    0.0000 O   0  0  0  0  0  0  0  0  0  0  0  0
    2.5145    1.0058    0.0000 C   0  0  0  0  0  0  0  0  0  0  0  0
    3.0174    1.8607    0.0000 C   0  0  0  0  0  0  0  0  0  0  0  0
    3.0174    0.1509    0.0000 C   0  0  0  0  0  0  0  0  0  0  0  0
    4.0232    1.8607    0.0000 C   0  0  0  0  0  0  0  0  0  0  0  0
    4.0232    0.1509    0.0000 C   0  0  0  0  0  0  0  0  0  0  0  0
    4.5261    1.0058    0.0000 C   0  0  0  0  0  0  0  0  0  0  0  0
    5.5319    1.0058    0.0000 C   0  0  0  0  0  0  0  0  0  0  0  0
  1  2  1  0  0  0  0 
  1  3  1  0  0  0  0 
  2  4  2  0  0  0  0 
  2  5  2  0  0  0  0 
  2  6  1  0  0  0  0 
  7  6  2  0  0  0  0 
  6  8  1  0  0  0  0 
  9  7  1  0  0  0  0 
  8 10  2  0  0  0  0 
 11  9  2  0  0  0  0 
 10 11  1  0  0  0  0 
 11 12  1  0  0  0  0 
M  END
> <Name>
Benzenesulfonic acid, 4-methyl-, methyl ester

> <Source>
NIST2DMolFile

> <Tox>
2.737

> <CAS>
80-48-8

$$$$

  CDK

 12 12  0  0  0  0  0  0  0  0999 V2000
    4.6511   -2.4840    0.0000 C   0  0  0  0  0  0  0  0  0  0  0  0
    3.3267   -2.4840    0.0000 C   0  0  0  0  0  0  0  0  0  0  0  0
    5.3164   -1.3307    0.0000 C   0  0  0  0  0  0  0  0  0  0  0  0
    2.6614   -1.3307    0.0000 C   0  0  0  0  0  0  0  0  0  0  0  0
    4.6511   -0.1774    0.0000 C   0  0  0  0  0  0  0  0  0  0  0  0
    6.3366   -2.1861    0.0000 N   0  0  0  0  0  0  0  0  0  0  0  0
    6.3366   -0.4752    0.0000 C   0  0  0  0  0  0  0  0  0  0  0  0
    3.3267   -0.1774    0.0000 C   0  0  0  0  0  0  0  0  0  0  0  0
    1.3307   -1.3307    0.0000 C   0  0  0  0  0  0  0  0  0  0  0  0
    1.3307   -2.6614    0.0000 C   0  0  0  0  0  0  0  0  0  0  0  0
    0.0000   -1.3307    0.0000 N   0  0  0  0  0  0  0  0  0  0  0  0
    1.3307   -0.0000    0.0000 C   0  0  0  0  0  0  0  0  0  0  0  0
  1  2  1  0  0  0  0 
  1  3  1  0  0  0  0 
  2  4  1  0  0  0  0 
  5  3  1  0  0  0  0 
  3  6  1  0  0  0  0 
  3  7  1  0  0  0  0 
  4  8  1  0  0  0  0 
  4  9  1  0  0  0  0 
  8  5  1  0  0  0  0 
  9 10  1  0  0  0  0 
  9 11  1  0  0  0  0 
  9 12  1  0  0  0  0 
M  END
> <Name>
Cyclohexanemethanamine, 4-amino-alpha,alpha,4-trimethyl-

> <Source>
DSSTox2DMolFile

> <Tox>
2.384

> <CAS>
80-52-4

$$$$

  CDK

  7  6  0  0  0  0  0  0  0  0999 V2000
    1.3306   -2.3052    0.0000 C   0  0  0  0  0  0  0  0  0  0  0  0
    0.0000   -2.3052    0.0000 O   0  0  0  0  0  0  0  0  0  0  0  0
    1.9941   -3.4560    0.0000 O   0  0  0  0  0  0  0  0  0  0  0  0
    1.9941   -1.1508    0.0000 C   0  0  0  0  0  0  0  0  0  0  0  0
    3.3247   -3.4560    0.0000 C   0  0  0  0  0  0  0  0  0  0  0  0
    1.3306   -0.0000    0.0000 C   0  0  0  0  0  0  0  0  0  0  0  0
    3.3247   -1.1508    0.0000 Cl  0  0  0  0  0  0  0  0  0  0  0  0
  1  2  2  0  0  0  0 
  1  3  1  0  0  0  0 
  1  4  1  0  0  0  0 
  3  5  1  0  0  0  0 
  4  6  2  0  0  0  0 
  4  7  1  0  0  0  0 
M  END
> <Name>
2-Propenoic acid, 2-chloro-, methyl ester (9CI)

> <Source>
DSSTox2DMolFile

> <Tox>
3.249

> <CAS>
80-63-7

$$$$

  CDK

 15 16  0  0  0  0  0  0  0  0999 V2000
    2.3040   -1.9929    0.0000 C   0  0  0  0  0  0  0  0  0  0  0  0
    3.4560   -2.6611    0.0000 C   0  0  0  0  0  0  0  0  0  0  0  0
    2.3040   -0.6624    0.0000 C   0  0  0  0  0  0  0  0  0  0  0  0
    1.1520   -2.6611    0.0000 S   0  0  0  0  0  0  0  0  0  0  0  0
    4.6080   -1.9929    0.0000 C   0  0  0  0  0  0  0  0  0  0  0  0
    3.4560   -3.9917    0.0000 C   0  0  0  0  0  0  0  0  0  0  0  0
    3.4560   -0.0000    0.0000 C   0  0  0  0  0  0  0  0  0  0  0  0
    1.1520   -0.0000    0.0000 N   0  0  0  0  0  0  0  0  0  0  0  0
    1.8144   -3.8131    0.0000 O   0  0  0  0  0  0  0  0  0  0  0  0
    0.0000   -3.3235    0.0000 O   0  0  0  0  0  0  0  0  0  0  0  0
    0.4896   -1.5091    0.0000 O   0  0  0  0  0  0  0  0  0  0  0  0
    4.6080   -0.6624    0.0000 C   0  0  0  0  0  0  0  0  0  0  0  0
    5.7600   -2.6611    0.0000 C   0  0  0  0  0  0  0  0  0  0  0  0
    4.6080   -4.6541    0.0000 C   0  0  0  0  0  0  0  0  0  0  0  0
    5.7600   -3.9917    0.0000 C   0  0  0  0  0  0  0  0  0  0  0  0
  1  2  2  0  0  0  0 
  1  3  1  0  0  0  0 
  1  4  1  0  0  0  0 
  2  5  1  0  0  0  0 
  2  6  1  0  0  0  0 
  7  3  2  0  0  0  0 
  3  8  1  0  0  0  0 
  4  9  2  0  0  0  0 
  4 10  1  0  0  0  0 
  4 11  2  0  0  0  0 
  5 12  2  0  0  0  0 
  5 13  1  0  0  0  0 
 14  6  2  0  0  0  0 
 12  7  1  0  0  0  0 
 13 15  2  0  0  0  0 
 15 14  1  0  0  0  0 
M  END
> <Name>
1-Naphthalenesulfonic acid, 2-amino-

> <Source>
DSSTox2DMolFile

> <Tox>
1.061

> <CAS>
81-16-3

$$$$

  CDK

 20 23  0  0  0  0  0  0  0  0999 V2000
    4.9728    3.4810    0.0000 O   0  0  0  0  0  0  0  0  0  0  0  0
    4.4755    2.5859    0.0000 C   0  0  0  0  0  0  0  0  0  0  0  0
    4.9728    1.7405    0.0000 O   0  0  0  0  0  0  0  0  0  0  0  0
    3.4810    2.5859    0.0000 C   0  0  0  0  0  0  0  0  0  0  0  0
    4.4755    0.8951    0.0000 C   0  0  0  0  0  0  0  0  0  0  0  0
    2.9837    1.7405    0.0000 C   0  0  0  0  0  0  0  0  0  0  0  0
    2.9837    3.4810    0.0000 C   0  0  0  0  0  0  0  0  0  0  0  0
    4.9728    0.0000    0.0000 O   0  0  0  0  0  0  0  0  0  0  0  0
    3.4810    0.8951    0.0000 C   0  0  0  0  0  0  0  0  0  0  0  0
    1.9891    1.7405    0.0000 C   0  0  0  0  0  0  0  0  0  0  0  0
    1.9891    3.4810    0.0000 C   0  0  0  0  0  0  0  0  0  0  0  0
    2.9837    0.0000    0.0000 C   0  0  0  0  0  0  0  0  0  0  0  0
    1.4918    0.8951    0.0000 C   0  0  0  0  0  0  0  0  0  0  0  0
    1.4918    2.5859    0.0000 C   0  0  0  0  0  0  0  0  0  0  0  0
    1.9891    0.0000    0.0000 C   0  0  0  0  0  0  0  0  0  0  0  0
    0.4973    0.8951    0.0000 C   0  0  0  0  0  0  0  0  0  0  0  0
    0.4973    2.5859    0.0000 C   0  0  0  0  0  0  0  0  0  0  0  0
    0.0000    0.0000    0.0000 O   0  0  0  0  0  0  0  0  0  0  0  0
    0.0000    1.7405    0.0000 O   0  0  0  0  0  0  0  0  0  0  0  0
    0.0000    3.4810    0.0000 O   0  0  0  0  0  0  0  0  0  0  0  0
  1  2  2  0  0  0  0 
  3  2  1  0  0  0  0 
  2  4  1  0  0  0  0 
  5  3  1  0  0  0  0 
  6  4  2  0  0  0  0 
  4  7  1  0  0  0  0 
  5  8  2  0  0  0  0 
  9  5  1  0  0  0  0 
  9  6  1  0  0  0  0 
  6 10  1  0  0  0  0 
  7 11  2  0  0  0  0 
 12  9  2  0  0  0  0 
 10 13  1  0  0  0  0 
 14 10  2  0  0  0  0 
 11 14  1  0  0  0  0 
 15 12  1  0  0  0  0 
 16 13  1  0  0  0  0 
 13 15  2  0  0  0  0 
 14 17  1  0  0  0  0 
 18 16  2  0  0  0  0 
 19 16  1  0  0  0  0 
 17 19  1  0  0  0  0 
 17 20  2  0  0  0  0 
M  END
> <Name>
1,4,5,8-Naphthalenetetracarboxylic 1,8:4,5-dianhydride (8CI)

> <Source>
NIST2DMolFile

> <Tox>
1.559

> <CAS>
81-30-1

$$$$

  CDK

 24 26  0  0  0  0  0  0  0  0999 V2000
    1.7214    1.4144    1.5461 O   0  0  0  0  0  0  0  0  0  0  0  0
    0.7481    0.4627    1.3040 C   0  0  0  0  0  0  0  0  0  0  0  0
    2.7573    1.5417    0.6567 C   0  0  0  0  0  0  0  0  0  0  0  0
    0.0169    0.4500    2.2736 O   0  0  0  0  0  0  0  0  0  0  0  0
    0.7544   -0.3438    0.0845 C   0  0  0  0  0  0  0  0  0  0  0  0
    2.9021    0.7116   -0.4683 C   0  0  0  0  0  0  0  0  0  0  0  0
    3.6954    2.5478    0.9446 C   0  0  0  0  0  0  0  0  0  0  0  0
    1.8639   -0.2824   -0.7218 C   0  0  0  0  0  0  0  0  0  0  0  0
   -0.4167   -1.2223   -0.2603 C   0  0  0  0  0  0  0  0  0  0  0  0
    4.0169    0.8937   -1.3007 C   0  0  0  0  0  0  0  0  0  0  0  0
    4.7815    2.7073    0.1020 C   0  0  0  0  0  0  0  0  0  0  0  0
    2.0707   -1.0829   -1.7889 O   0  0  0  0  0  0  0  0  0  0  0  0
   -1.7181   -0.4617   -0.2315 C   0  0  0  0  0  0  0  0  0  0  0  0
   -0.4394   -2.4863    0.6029 C   0  0  0  0  0  0  0  0  0  0  0  0
    4.9432    1.8815   -1.0145 C   0  0  0  0  0  0  0  0  0  0  0  0
   -2.5539   -0.4412    0.8861 C   0  0  0  0  0  0  0  0  0  0  0  0
   -2.0995    0.2356   -1.3833 C   0  0  0  0  0  0  0  0  0  0  0  0
    0.5049   -3.5703    0.1343 C   0  0  0  0  0  0  0  0  0  0  0  0
   -3.7566    0.2560    0.8546 C   0  0  0  0  0  0  0  0  0  0  0  0
   -3.2980    0.9354   -1.4219 C   0  0  0  0  0  0  0  0  0  0  0  0
    1.2034   -3.4678   -0.8639 O   0  0  0  0  0  0  0  0  0  0  0  0
    0.5270   -4.8113    0.9819 C   0  0  0  0  0  0  0  0  0  0  0  0
   -4.1241    0.9385   -0.3007 C   0  0  0  0  0  0  0  0  0  0  0  0
   -5.5825    1.7821   -0.3440 Cl  0  0  0  0  0  0  0  0  0  0  0  0
  1  2  1  0  0  0  0 
  1  3  1  0  0  0  0 
  2  4  2  0  0  0  0 
  2  5  1  0  0  0  0 
  6  3  1  0  0  0  0 
  7  3  2  0  0  0  0 
  5  8  2  0  0  0  0 
  5  9  1  0  0  0  0 
  8  6  1  0  0  0  0 
  6 10  2  0  0  0  0 
 11  7  1  0  0  0  0 
  8 12  1  0  0  0  0 
  9 13  1  0  0  0  0 
  9 14  1  0  0  0  0 
 10 15  1  0  0  0  0 
 15 11  2  0  0  0  0 
 13 16  1  0  0  0  0 
 13 17  2  0  0  0  0 
 14 18  1  0  0  0  0 
 16 19  2  0  0  0  0 
 20 17  1  0  0  0  0 
 18 21  2  0  0  0  0 
 18 22  1  0  0  0  0 
 19 23  1  0  0  0  0 
 23 20  2  0  0  0  0 
 23 24  1  0  0  0  0 
M  END
> <Name>
2H-1-Benzopyran-2-one, 3-(1-(4-chlorophenyl)-3-oxobutyl)-4-hydroxy- (9CI)

> <Source>
DougDB3DMolFile

> <Tox>
3.263

> <CAS>
81-82-3

$$$$

  CDK

 26 29  0  0  0  0  0  0  0  0999 V2000
    4.3255   -2.3180    0.0000 C   0  0  0  0  0  0  0  0  0  0  0  0
    3.5701   -1.2211    0.0000 C   0  0  0  0  0  0  0  0  0  0  0  0
    3.5701   -3.3735    0.0000 C   0  0  0  0  0  0  0  0  0  0  0  0
    5.6708   -2.3180    0.0000 C   0  0  0  0  0  0  0  0  0  0  0  0
    2.3180   -1.6350    0.0000 C   0  0  0  0  0  0  0  0  0  0  0  0
    3.5701   -0.0000    0.0000 O   0  0  0  0  0  0  0  0  0  0  0  0
    2.3180   -2.9699    0.0000 C   0  0  0  0  0  0  0  0  0  0  0  0
    3.5701   -4.5946    0.0000 O   0  0  0  0  0  0  0  0  0  0  0  0
    6.3331   -3.4563    0.0000 C   0  0  0  0  0  0  0  0  0  0  0  0
    6.3331   -1.1383    0.0000 O   0  0  0  0  0  0  0  0  0  0  0  0
    1.1590   -0.9624    0.0000 C   0  0  0  0  0  0  0  0  0  0  0  0
    1.1590   -3.6633    0.0000 C   0  0  0  0  0  0  0  0  0  0  0  0
    7.6680   -3.4563    0.0000 C   0  0  0  0  0  0  0  0  0  0  0  0
    5.6915   -4.6153    0.0000 C   0  0  0  0  0  0  0  0  0  0  0  0
    0.0000   -1.6350    0.0000 C   0  0  0  0  0  0  0  0  0  0  0  0
    0.0000   -2.9699    0.0000 C   0  0  0  0  0  0  0  0  0  0  0  0
    8.3199   -4.6153    0.0000 C   0  0  0  0  0  0  0  0  0  0  0  0
    8.3199   -2.3180    0.0000 C   0  0  0  0  0  0  0  0  0  0  0  0
    6.3745   -5.7846    0.0000 C   0  0  0  0  0  0  0  0  0  0  0  0
    4.3359   -4.6153    0.0000 C   0  0  0  0  0  0  0  0  0  0  0  0
    9.6549   -4.6153    0.0000 C   0  0  0  0  0  0  0  0  0  0  0  0
    9.6859   -2.3180    0.0000 C   0  0  0  0  0  0  0  0  0  0  0  0
    5.7019   -6.9747    0.0000 C   0  0  0  0  0  0  0  0  0  0  0  0
    3.6840   -5.8053    0.0000 C   0  0  0  0  0  0  0  0  0  0  0  0
   10.3482   -3.4563    0.0000 C   0  0  0  0  0  0  0  0  0  0  0  0
    4.3566   -6.9747    0.0000 C   0  0  0  0  0  0  0  0  0  0  0  0
  1  2  1  0  0  0  0 
  1  3  1  0  0  0  0 
  1  4  1  0  0  0  0 
  2  5  1  0  0  0  0 
  2  6  2  0  0  0  0 
  3  7  1  0  0  0  0 
  3  8  2  0  0  0  0 
  4  9  1  0  0  0  0 
  4 10  2  0  0  0  0 
  7  5  2  0  0  0  0 
  5 11  1  0  0  0  0 
  7 12  1  0  0  0  0 
  9 13  1  0  0  0  0 
  9 14  1  0  0  0  0 
 11 15  2  0  0  0  0 
 12 16  2  0  0  0  0 
 13 17  1  0  0  0  0 
 13 18  2  0  0  0  0 
 14 19  2  0  0  0  0 
 14 20  1  0  0  0  0 
 16 15  1  0  0  0  0 
 17 21  2  0  0  0  0 
 18 22  1  0  0  0  0 
 19 23  1  0  0  0  0 
 20 24  2  0  0  0  0 
 21 25  1  0  0  0  0 
 22 25  2  0  0  0  0 
 23 26  2  0  0  0  0 
 24 26  1  0  0  0  0 
M  END
> <Name>
1H-Indene-1,3-(2H)-dione, 2-(diphenylacetyl)-

> <Source>
DSSTox2DMolFile

> <Tox>
5.356

> <CAS>
82-66-6

$$$$

  CDK

 14 14  0  0  0  0  0  0  0  0999 V2000
    1.9924   -4.6070    0.0000 Cl  0  0  0  0  0  0  0  0  0  0  0  0
    2.6565   -3.4582    0.0000 C   0  0  0  0  0  0  0  0  0  0  0  0
    1.9924   -2.3035    0.0000 C   0  0  0  0  0  0  0  0  0  0  0  0
    3.9907   -3.4582    0.0000 C   0  0  0  0  0  0  0  0  0  0  0  0
    2.6565   -1.1547    0.0000 C   0  0  0  0  0  0  0  0  0  0  0  0
    0.6641   -2.3035    0.0000 N   0  0  0  0  0  0  0  0  0  0  0  0
    4.6549   -2.3035    0.0000 C   0  0  0  0  0  0  0  0  0  0  0  0
    4.6549   -4.6070    0.0000 Cl  0  0  0  0  0  0  0  0  0  0  0  0
    3.9907   -1.1547    0.0000 C   0  0  0  0  0  0  0  0  0  0  0  0
    1.9924   -0.0000    0.0000 Cl  0  0  0  0  0  0  0  0  0  0  0  0
    0.0000   -3.4582    0.0000 O   0  0  0  0  0  0  0  0  0  0  0  0
    0.0000   -1.1547    0.0000 O   0  0  0  0  0  0  0  0  0  0  0  0
    5.9831   -2.3035    0.0000 Cl  0  0  0  0  0  0  0  0  0  0  0  0
    4.6549   -0.0000    0.0000 Cl  0  0  0  0  0  0  0  0  0  0  0  0
  1  2  1  0  0  0  0 
  2  3  2  0  0  0  0 
  2  4  1  0  0  0  0 
  3  5  1  0  0  0  0 
  3  6  1  0  0  0  0 
  7  4  2  0  0  0  0 
  4  8  1  0  0  0  0 
  5  9  2  0  0  0  0 
  5 10  1  0  0  0  0 
  6 11  2  0  0  0  0 
  6 12  1  0  0  0  0 
  9  7  1  0  0  0  0 
  7 13  1  0  0  0  0 
  9 14  1  0  0  0  0 
M  CHG  1   6   1
M  CHG  1  12  -1
M  END
> <Name>
Benzene, pentachloronitro-

> <Source>
DSSTox2DMolFile

> <Tox>
2.429

> <CAS>
82-68-8

$$$$

  CDK

 11 11  0  0  0  0  0  0  0  0999 V2000
    1.9317   -0.1295    0.0000 C   0  0  0  0  0  0  0  0  0  0  0  0
    0.5395    0.3417   -0.0003 C   0  0  0  0  0  0  0  0  0  0  0  0
    2.2967   -1.3056    0.0003 O   0  0  0  0  0  0  0  0  0  0  0  0
    2.9264    0.7794    0.0000 O   0  0  0  0  0  0  0  0  0  0  0  0
   -0.5016   -0.6134    0.0000 C   0  0  0  0  0  0  0  0  0  0  0  0
    0.2233    1.7067   -0.0003 C   0  0  0  0  0  0  0  0  0  0  0  0
   -0.2799   -1.9493   -0.0001 O   0  0  0  0  0  0  0  0  0  0  0  0
   -1.8531   -0.1913    0.0003 C   0  0  0  0  0  0  0  0  0  0  0  0
   -1.0985    2.1130    0.0000 C   0  0  0  0  0  0  0  0  0  0  0  0
   -2.1278    1.1693    0.0004 C   0  0  0  0  0  0  0  0  0  0  0  0
   -2.9590   -1.1832   -0.0002 C   0  0  0  0  0  0  0  0  0  0  0  0
  1  2  1  0  0  0  0 
  1  3  2  0  0  0  0 
  1  4  1  0  0  0  0 
  2  5  1  0  0  0  0 
  2  6  2  0  0  0  0 
  5  7  1  0  0  0  0 
  5  8  2  0  0  0  0 
  9  6  1  0  0  0  0 
  8 10  1  0  0  0  0 
  8 11  1  0  0  0  0 
 10  9  2  0  0  0  0 
M  END
> <Name>
Benzoic acid, 2-hydroxy-3-methyl-

> <Source>
DougDB3DMolFile

> <Tox>
2.534

> <CAS>
83-40-9

$$$$

  CDK

 26 28  0  0  0  0  0  0  0  0999 V2000
   11.4186   -0.0000    0.0000 C   0  0  0  0  0  0  0  0  0  0  0  0
   10.0826   -0.0000    0.0000 C   0  0  0  0  0  0  0  0  0  0  0  0
    9.4203   -1.1419    0.0000 C   0  0  0  0  0  0  0  0  0  0  0  0
    8.0958   -1.1419    0.0000 O   0  0  0  0  0  0  0  0  0  0  0  0
    7.4221   -2.2951    0.0000 C   0  0  0  0  0  0  0  0  0  0  0  0
    8.0958   -3.4484    0.0000 O   0  0  0  0  0  0  0  0  0  0  0  0
    6.0975   -2.2951    0.0000 C   0  0  0  0  0  0  0  0  0  0  0  0
    5.4353   -1.1419    0.0000 C   0  0  0  0  0  0  0  0  0  0  0  0
    5.4353   -3.4484    0.0000 C   0  0  0  0  0  0  0  0  0  0  0  0
    6.0975   -0.0000    0.0000 C   0  0  0  0  0  0  0  0  0  0  0  0
    4.0993   -1.1419    0.0000 C   0  0  0  0  0  0  0  0  0  0  0  0
    4.0993   -3.4484    0.0000 C   0  0  0  0  0  0  0  0  0  0  0  0
    6.0975   -4.6017    0.0000 C   0  0  0  0  0  0  0  0  0  0  0  0
    3.4370   -2.2951    0.0000 C   0  0  0  0  0  0  0  0  0  0  0  0
    3.4370   -4.6017    0.0000 C   0  0  0  0  0  0  0  0  0  0  0  0
    5.4353   -5.7550    0.0000 O   0  0  0  0  0  0  0  0  0  0  0  0
    7.4221   -4.6017    0.0000 O   0  0  0  0  0  0  0  0  0  0  0  0
    2.1010   -2.2951    0.0000 C   0  0  0  0  0  0  0  0  0  0  0  0
    2.1010   -4.6017    0.0000 C   0  0  0  0  0  0  0  0  0  0  0  0
    8.0958   -5.7550    0.0000 C   0  0  0  0  0  0  0  0  0  0  0  0
    1.4387   -3.4484    0.0000 C   0  0  0  0  0  0  0  0  0  0  0  0
    1.2104   -5.5951    0.0000 O   0  0  0  0  0  0  0  0  0  0  0  0
    9.4203   -5.7550    0.0000 C   0  0  0  0  0  0  0  0  0  0  0  0
    0.1370   -3.7339    0.0000 O   0  0  0  0  0  0  0  0  0  0  0  0
    0.0000   -5.0470    0.0000 C   0  0  0  0  0  0  0  0  0  0  0  0
   10.0826   -6.9083    0.0000 C   0  0  0  0  0  0  0  0  0  0  0  0
  1  2  1  0  0  0  0 
  2  3  1  0  0  0  0 
  3  4  1  0  0  0  0 
  4  5  1  0  0  0  0 
  5  6  2  0  0  0  0 
  5  7  1  0  0  0  0 
  7  8  1  0  0  0  0 
  7  9  1  0  0  0  0 
  8 10  1  0  0  0  0 
  8 11  1  0  0  0  0 
 12  9  1  0  0  0  0 
  9 13  1  0  0  0  0 
 11 14  1  0  0  0  0 
 14 12  2  0  0  0  0 
 12 15  1  0  0  0  0 
 13 16  2  0  0  0  0 
 13 17  1  0  0  0  0 
 14 18  1  0  0  0  0 
 15 19  2  0  0  0  0 
 17 20  1  0  0  0  0 
 21 18  2  0  0  0  0 
 19 22  1  0  0  0  0 
 19 21  1  0  0  0  0 
 20 23  1  0  0  0  0 
 24 21  1  0  0  0  0 
 22 25  1  0  0  0  0 
 23 26  1  0  0  0  0 
 25 24  1  0  0  0  0 
M  END
> <Name>
Naphthalene-1,2-dicarboxyic acid, 1,2,3,4-tetrahydro-3-methyl-6,7-methylenedioxy-, dipropyl ester

> <Source>
DSSTox2DMolFile

> <Tox>
2.383

> <CAS>
83-59-0

$$$$

  CDK

 16 17  0  0  0  0  0  0  0  0999 V2000
    5.0000    1.0000    0.0000 O   0  0  0  0  0  0  0  0  0  0  0  0
    4.0000    1.0000    0.0000 S   0  0  0  0  0  0  0  0  0  0  0  0
    4.0000    0.0000    0.0000 O   0  0  0  0  0  0  0  0  0  0  0  0
    4.0000    2.0000    0.0000 O   0  0  0  0  0  0  0  0  0  0  0  0
    3.0000    1.0000    0.0000 C   0  0  0  0  0  0  0  0  0  0  0  0
    2.5000    0.1339    0.0000 C   0  0  0  0  0  0  0  0  0  0  0  0
    2.5000    1.8660    0.0000 C   0  0  0  0  0  0  0  0  0  0  0  0
    1.4999    0.1339    0.0000 C   0  0  0  0  0  0  0  0  0  0  0  0
    3.0000    2.7321    0.0000 C   0  0  0  0  0  0  0  0  0  0  0  0
    1.4999    1.8660    0.0000 C   0  0  0  0  0  0  0  0  0  0  0  0
    1.0000    1.0000    0.0000 C   0  0  0  0  0  0  0  0  0  0  0  0
    2.4999    3.5980    0.0000 C   0  0  0  0  0  0  0  0  0  0  0  0
    1.0000    2.7321    0.0000 C   0  0  0  0  0  0  0  0  0  0  0  0
    0.0000    1.0000    0.0000 N   0  0  0  0  0  0  0  0  0  0  0  0
    1.4999    3.5980    0.0000 C   0  0  0  0  0  0  0  0  0  0  0  0
    0.0000    2.7321    0.0000 O   0  0  0  0  0  0  0  0  0  0  0  0
  2  1  1  0  0  0  0 
  2  3  2  0  0  0  0 
  2  4  2  0  0  0  0 
  5  2  1  0  0  0  0 
  6  5  2  0  0  0  0 
  5  7  1  0  0  0  0 
  8  6  1  0  0  0  0 
  7  9  1  0  0  0  0 
 10  7  2  0  0  0  0 
 11  8  2  0  0  0  0 
  9 12  2  0  0  0  0 
 10 11  1  0  0  0  0 
 13 10  1  0  0  0  0 
 11 14  1  0  0  0  0 
 12 15  1  0  0  0  0 
 13 16  1  0  0  0  0 
 15 13  2  0  0  0  0 
M  END
> <Name>
1-Naphthalenesulfonic acid, 4-amino-5-hydroxy-

> <Source>
NIST2DMolFile

> <Tox>
1.586

> <CAS>
83-64-7

$$$$

  CDK

 23 27  0  0  0  0  0  0  0  0999 V2000
    8.3163    2.1595    0.0000 C   0  0  0  0  0  0  0  0  0  0  0  0
    7.4892    1.7000    0.0000 C   0  0  0  0  0  0  0  0  0  0  0  0
    6.7541    2.2054    0.0000 C   0  0  0  0  0  0  0  0  0  0  0  0
    5.9271    1.7919    0.0000 C   0  0  0  0  0  0  0  0  0  0  0  0
    6.7541    3.1243    0.0000 C   0  0  0  0  0  0  0  0  0  0  0  0
    5.1460    2.2973    0.0000 C   0  0  0  0  0  0  0  0  0  0  0  0
    6.0190    0.8730    0.0000 N   0  0  0  0  0  0  0  0  0  0  0  0
    5.9730    3.6297    0.0000 C   0  0  0  0  0  0  0  0  0  0  0  0
    4.2270    1.9757    0.0000 C   0  0  0  0  0  0  0  0  0  0  0  0
    5.1460    3.1703    0.0000 C   0  0  0  0  0  0  0  0  0  0  0  0
    6.7081    0.4595    0.0000 C   0  0  0  0  0  0  0  0  0  0  0  0
    5.3757    0.2297    0.0000 C   0  0  0  0  0  0  0  0  0  0  0  0
    3.9514    1.1027    0.0000 C   0  0  0  0  0  0  0  0  0  0  0  0
    3.5838    2.5270    0.0000 N   0  0  0  0  0  0  0  0  0  0  0  0
    4.4568    0.3216    0.0000 C   0  0  0  0  0  0  0  0  0  0  0  0
    3.0324    1.1027    0.0000 C   0  0  0  0  0  0  0  0  0  0  0  0
    2.8027    2.0216    0.0000 C   0  0  0  0  0  0  0  0  0  0  0  0
    2.3892    0.4595    0.0000 C   0  0  0  0  0  0  0  0  0  0  0  0
    1.9297    2.1595    0.0000 C   0  0  0  0  0  0  0  0  0  0  0  0
    1.5622    0.6432    0.0000 C   0  0  0  0  0  0  0  0  0  0  0  0
    1.2405    1.5162    0.0000 C   0  0  0  0  0  0  0  0  0  0  0  0
    0.9189    0.0000    0.0000 O   0  0  0  0  0  0  0  0  0  0  0  0
    0.0000    0.1838    0.0000 C   0  0  0  0  0  0  0  0  0  0  0  0
  1  2  1  0  0  0  0 
  2  3  1  0  0  0  0 
  3  4  1  0  0  0  0 
  5  3  1  0  0  0  0 
  4  6  1  0  0  0  0 
  7  4  1  0  0  0  0 
  8  5  1  0  0  0  0 
  9  6  1  0  0  0  0 
  6 10  1  0  0  0  0 
 11  7  1  0  0  0  0 
  7 12  1  0  0  0  0 
 10  8  1  0  0  0  0 
 11  8  1  0  0  0  0 
 13  9  2  0  0  0  0 
 14  9  1  0  0  0  0 
 12 15  1  0  0  0  0 
 15 13  1  0  0  0  0 
 13 16  1  0  0  0  0 
 17 14  1  0  0  0  0 
 16 17  2  0  0  0  0 
 16 18  1  0  0  0  0 
 19 17  1  0  0  0  0 
 18 20  2  0  0  0  0 
 21 19  2  0  0  0  0 
 20 21  1  0  0  0  0 
 20 22  1  0  0  0  0 
 22 23  1  0  0  0  0 
M  END
> <Name>
Ibogamine, 12-methoxy-

> <Source>
NIST2DMolFile

> <Tox>
2.977

> <CAS>
83-74-9

$$$$

  CDK

 24 26  0  0  0  0  0  0  0  0999 V2000
    3.9936   -4.6073    0.0000 O   0  0  0  0  0  0  0  0  0  0  0  0
    4.6505   -5.7656    0.0000 C   0  0  0  0  0  0  0  0  0  0  0  0
    3.9936   -6.9153    0.0000 O   0  0  0  0  0  0  0  0  0  0  0  0
    5.9817   -5.7656    0.0000 C   0  0  0  0  0  0  0  0  0  0  0  0
    2.6624   -6.9153    0.0000 C   0  0  0  0  0  0  0  0  0  0  0  0
    6.6473   -4.6073    0.0000 C   0  0  0  0  0  0  0  0  0  0  0  0
    6.6473   -6.9153    0.0000 C   0  0  0  0  0  0  0  0  0  0  0  0
    1.9968   -8.0649    0.0000 C   0  0  0  0  0  0  0  0  0  0  0  0
    1.9968   -5.7656    0.0000 C   0  0  0  0  0  0  0  0  0  0  0  0
    7.9785   -4.6073    0.0000 C   0  0  0  0  0  0  0  0  0  0  0  0
    5.9817   -3.4576    0.0000 C   0  0  0  0  0  0  0  0  0  0  0  0
    7.9785   -6.9153    0.0000 C   0  0  0  0  0  0  0  0  0  0  0  0
    0.6656   -8.0649    0.0000 C   0  0  0  0  0  0  0  0  0  0  0  0
    0.6656   -5.7656    0.0000 C   0  0  0  0  0  0  0  0  0  0  0  0
    8.6441   -5.7656    0.0000 C   0  0  0  0  0  0  0  0  0  0  0  0
    6.6473   -2.3080    0.0000 O   0  0  0  0  0  0  0  0  0  0  0  0
    4.6505   -3.4576    0.0000 O   0  0  0  0  0  0  0  0  0  0  0  0
    0.0000   -6.9153    0.0000 C   0  0  0  0  0  0  0  0  0  0  0  0
    3.9936   -2.3080    0.0000 C   0  0  0  0  0  0  0  0  0  0  0  0
    2.6624   -2.3080    0.0000 C   0  0  0  0  0  0  0  0  0  0  0  0
    4.6505   -1.1583    0.0000 C   0  0  0  0  0  0  0  0  0  0  0  0
    1.9968   -1.1583    0.0000 C   0  0  0  0  0  0  0  0  0  0  0  0
    3.9936   -0.0000    0.0000 C   0  0  0  0  0  0  0  0  0  0  0  0
    2.6624   -0.0000    0.0000 C   0  0  0  0  0  0  0  0  0  0  0  0
  1  2  2  0  0  0  0 
  2  3  1  0  0  0  0 
  2  4  1  0  0  0  0 
  3  5  1  0  0  0  0 
  4  6  2  0  0  0  0 
  4  7  1  0  0  0  0 
  5  8  1  0  0  0  0 
  5  9  1  0  0  0  0 
  6 10  1  0  0  0  0 
  6 11  1  0  0  0  0 
 12  7  2  0  0  0  0 
  8 13  1  0  0  0  0 
 14  9  1  0  0  0  0 
 10 15  2  0  0  0  0 
 11 16  2  0  0  0  0 
 11 17  1  0  0  0  0 
 15 12  1  0  0  0  0 
 13 18  1  0  0  0  0 
 18 14  1  0  0  0  0 
 17 19  1  0  0  0  0 
 19 20  1  0  0  0  0 
 19 21  1  0  0  0  0 
 20 22  1  0  0  0  0 
 23 21  1  0  0  0  0 
 22 24  1  0  0  0  0 
 24 23  1  0  0  0  0 
M  END
> <Name>
1,2-Benzenedicarboxylic acid, dicyclohexyl ester

> <Source>
DSSTox2DMolFile

> <Tox>
0.982

> <CAS>
84-61-7

$$$$

  CDK

 16 16  0  0  0  0  0  0  0  0999 V2000
    6.6518   -5.7598    0.0000 C   0  0  0  0  0  0  0  0  0  0  0  0
    5.9880   -4.6120    0.0000 C   0  0  0  0  0  0  0  0  0  0  0  0
    4.6604   -4.6120    0.0000 O   0  0  0  0  0  0  0  0  0  0  0  0
    3.9897   -5.7598    0.0000 C   0  0  0  0  0  0  0  0  0  0  0  0
    4.6604   -6.9146    0.0000 O   0  0  0  0  0  0  0  0  0  0  0  0
    2.6621   -5.7598    0.0000 C   0  0  0  0  0  0  0  0  0  0  0  0
    1.9983   -6.9146    0.0000 C   0  0  0  0  0  0  0  0  0  0  0  0
    1.9983   -4.6120    0.0000 C   0  0  0  0  0  0  0  0  0  0  0  0
    0.6638   -6.9146    0.0000 C   0  0  0  0  0  0  0  0  0  0  0  0
    0.6638   -4.6120    0.0000 C   0  0  0  0  0  0  0  0  0  0  0  0
    2.6621   -3.4573    0.0000 C   0  0  0  0  0  0  0  0  0  0  0  0
    0.0000   -5.7598    0.0000 C   0  0  0  0  0  0  0  0  0  0  0  0
    3.9897   -3.4573    0.0000 O   0  0  0  0  0  0  0  0  0  0  0  0
    1.9983   -2.3025    0.0000 O   0  0  0  0  0  0  0  0  0  0  0  0
    2.6621   -1.1547    0.0000 C   0  0  0  0  0  0  0  0  0  0  0  0
    1.9983   -0.0000    0.0000 C   0  0  0  0  0  0  0  0  0  0  0  0
  1  2  1  0  0  0  0 
  2  3  1  0  0  0  0 
  3  4  1  0  0  0  0 
  4  5  2  0  0  0  0 
  4  6  1  0  0  0  0 
  6  7  2  0  0  0  0 
  6  8  1  0  0  0  0 
  7  9  1  0  0  0  0 
 10  8  2  0  0  0  0 
  8 11  1  0  0  0  0 
  9 12  2  0  0  0  0 
 12 10  1  0  0  0  0 
 11 13  2  0  0  0  0 
 11 14  1  0  0  0  0 
 14 15  1  0  0  0  0 
 15 16  1  0  0  0  0 
M  END
> <Name>
1,2-Benzenedicarboxylic acid, diethyl ester

> <Source>
DSSTox2DMolFile

> <Tox>
1.412

> <CAS>
84-66-2

$$$$

  CDK

 21 23  0  0  0  0  0  0  0  0999 V2000
    4.6072   -0.6634    0.0000 C   0  0  0  0  0  0  0  0  0  0  0  0
    5.7590   -0.0000    0.0000 C   0  0  0  0  0  0  0  0  0  0  0  0
    4.6072   -1.9995    0.0000 C   0  0  0  0  0  0  0  0  0  0  0  0
    6.9108   -0.6634    0.0000 C   0  0  0  0  0  0  0  0  0  0  0  0
    5.7590   -2.6630    0.0000 C   0  0  0  0  0  0  0  0  0  0  0  0
    6.9108   -1.9995    0.0000 C   0  0  0  0  0  0  0  0  0  0  0  0
    5.7590   -3.9898    0.0000 N   0  0  0  0  0  0  0  0  0  0  0  0
    8.0626   -2.6630    0.0000 S   0  0  0  0  0  0  0  0  0  0  0  0
    4.6072   -4.6533    0.0000 C   0  0  0  0  0  0  0  0  0  0  0  0
    6.9108   -4.6533    0.0000 C   0  0  0  0  0  0  0  0  0  0  0  0
    8.0626   -3.9898    0.0000 C   0  0  0  0  0  0  0  0  0  0  0  0
    3.4554   -3.9898    0.0000 C   0  0  0  0  0  0  0  0  0  0  0  0
    6.9108   -5.9894    0.0000 C   0  0  0  0  0  0  0  0  0  0  0  0
    9.2144   -4.6533    0.0000 C   0  0  0  0  0  0  0  0  0  0  0  0
    3.4554   -2.6630    0.0000 C   0  0  0  0  0  0  0  0  0  0  0  0
    2.3036   -4.6533    0.0000 C   0  0  0  0  0  0  0  0  0  0  0  0
    8.0626   -6.6528    0.0000 C   0  0  0  0  0  0  0  0  0  0  0  0
    9.2144   -5.9894    0.0000 C   0  0  0  0  0  0  0  0  0  0  0  0
    1.1518   -3.9898    0.0000 N   0  0  0  0  0  0  0  0  0  0  0  0
    0.0000   -4.6533    0.0000 C   0  0  0  0  0  0  0  0  0  0  0  0
    1.1518   -2.6630    0.0000 C   0  0  0  0  0  0  0  0  0  0  0  0
  1  2  2  0  0  0  0 
  1  3  1  0  0  0  0 
  2  4  1  0  0  0  0 
  5  3  2  0  0  0  0 
  4  6  2  0  0  0  0 
  6  5  1  0  0  0  0 
  5  7  1  0  0  0  0 
  6  8  1  0  0  0  0 
  7  9  1  0  0  0  0 
  7 10  1  0  0  0  0 
 11  8  1  0  0  0  0 
  9 12  1  0  0  0  0 
 10 11  2  0  0  0  0 
 10 13  1  0  0  0  0 
 11 14  1  0  0  0  0 
 12 15  1  0  0  0  0 
 12 16  1  0  0  0  0 
 17 13  2  0  0  0  0 
 14 18  2  0  0  0  0 
 16 19  1  0  0  0  0 
 18 17  1  0  0  0  0 
 19 20  1  0  0  0  0 
 19 21  1  0  0  0  0 
M  END
> <Name>
10H-Phenothiazine-10-propanamine, N,N,beta-trimethyl-

> <Source>
DSSTox2DMolFile

> <Tox>
3.153

> <CAS>
84-96-8

$$$$

  CDK

 13 13  0  0  0  0  0  0  0  0999 V2000
    2.0912   -1.6022   -0.2899 C   0  0  0  0  0  0  0  0  0  0  0  0
    1.5109   -0.8212    0.8690 C   0  0  0  0  0  0  0  0  0  0  0  0
    3.0778   -1.3544   -0.9573 O   0  0  0  0  0  0  0  0  0  0  0  0
    1.4261   -2.7368   -0.6092 O   0  0  0  0  0  0  0  0  0  0  0  0
    0.4844    0.1558    0.3975 C   0  0  0  0  0  0  0  0  0  0  0  0
   -0.8548   -0.2298    0.2610 C   0  0  0  0  0  0  0  0  0  0  0  0
    0.8275    1.4812    0.1080 C   0  0  0  0  0  0  0  0  0  0  0  0
   -1.8132    0.6888   -0.1724 C   0  0  0  0  0  0  0  0  0  0  0  0
   -1.3453   -1.7947    0.6211 Cl  0  0  0  0  0  0  0  0  0  0  0  0
   -0.1320    2.3965   -0.3258 C   0  0  0  0  0  0  0  0  0  0  0  0
    2.4123    2.0231    0.2842 Cl  0  0  0  0  0  0  0  0  0  0  0  0
   -1.4542    2.0012   -0.4703 C   0  0  0  0  0  0  0  0  0  0  0  0
   -3.4139    0.2057   -0.3343 Cl  0  0  0  0  0  0  0  0  0  0  0  0
  1  2  1  0  0  0  0 
  1  3  2  0  0  0  0 
  1  4  1  0  0  0  0 
  2  5  1  0  0  0  0 
  5  6  1  0  0  0  0 
  5  7  2  0  0  0  0 
  6  8  2  0  0  0  0 
  6  9  1  0  0  0  0 
 10  7  1  0  0  0  0 
  7 11  1  0  0  0  0 
  8 12  1  0  0  0  0 
  8 13  1  0  0  0  0 
 12 10  2  0  0  0  0 
M  END
> <Name>
Acetic acid, (2,3,6-trichlorophenyl)-

> <Source>
DougDB3DMolFile

> <Tox>
2.129

> <CAS>
85-34-7

$$$$

  CDK

 23 24  0  0  0  0  0  0  0  0999 V2000
    5.3142   -2.2980    0.0000 C   0  0  0  0  0  0  0  0  0  0  0  0
    3.9856   -2.2980    0.0000 C   0  0  0  0  0  0  0  0  0  0  0  0
    5.9844   -1.1490    0.0000 C   0  0  0  0  0  0  0  0  0  0  0  0
    5.9844   -3.4470    0.0000 C   0  0  0  0  0  0  0  0  0  0  0  0
    3.3273   -1.1490    0.0000 C   0  0  0  0  0  0  0  0  0  0  0  0
    3.3273   -3.4470    0.0000 C   0  0  0  0  0  0  0  0  0  0  0  0
    5.3142   -0.0000    0.0000 C   0  0  0  0  0  0  0  0  0  0  0  0
    7.3130   -3.4470    0.0000 O   0  0  0  0  0  0  0  0  0  0  0  0
    5.3142   -4.6080    0.0000 O   0  0  0  0  0  0  0  0  0  0  0  0
    3.9856   -0.0000    0.0000 C   0  0  0  0  0  0  0  0  0  0  0  0
    3.9856   -4.6080    0.0000 O   0  0  0  0  0  0  0  0  0  0  0  0
    1.9988   -3.4470    0.0000 O   0  0  0  0  0  0  0  0  0  0  0  0
    7.9832   -4.6080    0.0000 C   0  0  0  0  0  0  0  0  0  0  0  0
    3.3273   -5.7570    0.0000 C   0  0  0  0  0  0  0  0  0  0  0  0
    9.3118   -4.6080    0.0000 C   0  0  0  0  0  0  0  0  0  0  0  0
    1.9988   -5.7570    0.0000 C   0  0  0  0  0  0  0  0  0  0  0  0
    9.9701   -3.4470    0.0000 C   0  0  0  0  0  0  0  0  0  0  0  0
    9.9701   -5.7570    0.0000 C   0  0  0  0  0  0  0  0  0  0  0  0
    1.3285   -6.9060    0.0000 C   0  0  0  0  0  0  0  0  0  0  0  0
   11.2986   -3.4470    0.0000 C   0  0  0  0  0  0  0  0  0  0  0  0
   11.2986   -5.7570    0.0000 C   0  0  0  0  0  0  0  0  0  0  0  0
    0.0000   -6.9060    0.0000 C   0  0  0  0  0  0  0  0  0  0  0  0
   11.9689   -4.6080    0.0000 C   0  0  0  0  0  0  0  0  0  0  0  0
  1  2  2  0  0  0  0 
  1  3  1  0  0  0  0 
  1  4  1  0  0  0  0 
  2  5  1  0  0  0  0 
  2  6  1  0  0  0  0 
  7  3  2  0  0  0  0 
  4  8  1  0  0  0  0 
  4  9  2  0  0  0  0 
  5 10  2  0  0  0  0 
  6 11  1  0  0  0  0 
  6 12  2  0  0  0  0 
 10  7  1  0  0  0  0 
  8 13  1  0  0  0  0 
 11 14  1  0  0  0  0 
 13 15  1  0  0  0  0 
 14 16  1  0  0  0  0 
 15 17  2  0  0  0  0 
 15 18  1  0  0  0  0 
 16 19  1  0  0  0  0 
 17 20  1  0  0  0  0 
 21 18  2  0  0  0  0 
 19 22  1  0  0  0  0 
 20 23  2  0  0  0  0 
 23 21  1  0  0  0  0 
M  END
> <Name>
1,2-Benzenedicarboxylic acid, butyl phenylmethyl ester

> <Source>
DSSTox2DMolFile

> <Tox>
2.127

> <CAS>
85-68-7

$$$$

  CDK

 15 16  0  0  0  0  0  0  0  0999 V2000
    2.3008   -0.0000    0.0000 O   0  0  0  0  0  0  0  0  0  0  0  0
    3.4546   -0.6702    0.0000 N   0  0  0  0  0  0  0  0  0  0  0  0
    3.4546   -1.9968    0.0000 N   0  0  0  0  0  0  0  0  0  0  0  0
    4.6085   -2.6601    0.0000 C   0  0  0  0  0  0  0  0  0  0  0  0
    2.3008   -2.6601    0.0000 C   0  0  0  0  0  0  0  0  0  0  0  0
    5.7554   -1.9968    0.0000 C   0  0  0  0  0  0  0  0  0  0  0  0
    4.6085   -3.9935    0.0000 C   0  0  0  0  0  0  0  0  0  0  0  0
    2.3008   -3.9935    0.0000 C   0  0  0  0  0  0  0  0  0  0  0  0
    1.1538   -1.9968    0.0000 C   0  0  0  0  0  0  0  0  0  0  0  0
    6.9093   -2.6601    0.0000 C   0  0  0  0  0  0  0  0  0  0  0  0
    5.7554   -4.6568    0.0000 C   0  0  0  0  0  0  0  0  0  0  0  0
    1.1538   -4.6568    0.0000 C   0  0  0  0  0  0  0  0  0  0  0  0
    0.0000   -2.6601    0.0000 C   0  0  0  0  0  0  0  0  0  0  0  0
    6.9093   -3.9935    0.0000 C   0  0  0  0  0  0  0  0  0  0  0  0
    0.0000   -3.9935    0.0000 C   0  0  0  0  0  0  0  0  0  0  0  0
  1  2  2  0  0  0  0 
  2  3  1  0  0  0  0 
  3  4  1  0  0  0  0 
  3  5  1  0  0  0  0 
  4  6  2  0  0  0  0 
  4  7  1  0  0  0  0 
  5  8  2  0  0  0  0 
  5  9  1  0  0  0  0 
  6 10  1  0  0  0  0 
 11  7  2  0  0  0  0 
  8 12  1  0  0  0  0 
 13  9  2  0  0  0  0 
 10 14  2  0  0  0  0 
 14 11  1  0  0  0  0 
 12 15  2  0  0  0  0 
 15 13  1  0  0  0  0 
M  END
> <Name>
Benzenamine, N-nitroso-N-phenyl-

> <Source>
DSSTox2DMolFile

> <Tox>
2.036

> <CAS>
86-30-6

$$$$

  CDK

 12 13  0  0  0  0  0  0  0  0999 V2000
    0.7822   -0.2217    0.4229 C   0  0  0  0  0  0  0  0  0  0  0  0
    1.0762   -1.5631    0.3461 C   0  0  0  0  0  0  0  0  0  0  0  0
   -0.5558    0.2254    0.2001 C   0  0  0  0  0  0  0  0  0  0  0  0
    1.8682    0.7392    0.7481 C   0  0  0  0  0  0  0  0  0  0  0  0
    0.0723   -2.5102    0.0508 C   0  0  0  0  0  0  0  0  0  0  0  0
   -1.5549   -0.7279   -0.0917 C   0  0  0  0  0  0  0  0  0  0  0  0
   -0.9217    1.5985    0.2623 C   0  0  0  0  0  0  0  0  0  0  0  0
    3.1487    0.6329   -0.4913 Cl  0  0  0  0  0  0  0  0  0  0  0  0
   -1.2173   -2.1056   -0.1629 C   0  0  0  0  0  0  0  0  0  0  0  0
   -2.8919   -0.2971   -0.3131 C   0  0  0  0  0  0  0  0  0  0  0  0
   -2.2140    1.9894    0.0449 C   0  0  0  0  0  0  0  0  0  0  0  0
   -3.2123    1.0308   -0.2456 C   0  0  0  0  0  0  0  0  0  0  0  0
  1  2  1  0  0  0  0 
  1  3  2  0  0  0  0 
  1  4  1  0  0  0  0 
  2  5  2  0  0  0  0 
  6  3  1  0  0  0  0 
  7  3  1  0  0  0  0 
  4  8  1  0  0  0  0 
  5  9  1  0  0  0  0 
  9  6  2  0  0  0  0 
  6 10  1  0  0  0  0 
 11  7  2  0  0  0  0 
 10 12  2  0  0  0  0 
 12 11  1  0  0  0  0 
M  END
> <Name>
Naphthalene, 1-(chloromethyl)-

> <Source>
DougDB3DMolFile

> <Tox>
2.298

> <CAS>
86-52-2

$$$$

  CDK

 14 14  0  0  0  0  0  0  0  0999 V2000
    2.4990    1.6993    0.0000 O   0  0  0  0  0  0  0  0  0  0  0  0
    2.9988    2.5990    0.0000 C   0  0  0  0  0  0  0  0  0  0  0  0
    1.4994    1.6993    0.0000 C   0  0  0  0  0  0  0  0  0  0  0  0
    2.4990    3.4486    0.0000 O   0  0  0  0  0  0  0  0  0  0  0  0
    3.9984    2.5990    0.0000 C   0  0  0  0  0  0  0  0  0  0  0  0
    0.9996    0.8497    0.0000 C   0  0  0  0  0  0  0  0  0  0  0  0
    4.4982    3.4486    0.0000 C   0  0  0  0  0  0  0  0  0  0  0  0
    4.4982    1.6993    0.0000 C   0  0  0  0  0  0  0  0  0  0  0  0
    1.4994    0.0000    0.0000 C   0  0  0  0  0  0  0  0  0  0  0  0
    0.0000    0.8497    0.0000 C   0  0  0  0  0  0  0  0  0  0  0  0
    3.9984    4.2983    0.0000 O   0  0  0  0  0  0  0  0  0  0  0  0
    5.4978    3.4486    0.0000 C   0  0  0  0  0  0  0  0  0  0  0  0
    5.4978    1.6993    0.0000 C   0  0  0  0  0  0  0  0  0  0  0  0
    5.9976    2.5990    0.0000 C   0  0  0  0  0  0  0  0  0  0  0  0
  1  2  1  0  0  0  0 
  1  3  1  0  0  0  0 
  2  4  2  0  0  0  0 
  2  5  1  0  0  0  0 
  3  6  1  0  0  0  0 
  7  5  2  0  0  0  0 
  5  8  1  0  0  0  0 
  6  9  1  0  0  0  0 
  6 10  1  0  0  0  0 
  7 11  1  0  0  0  0 
 12  7  1  0  0  0  0 
  8 13  2  0  0  0  0 
 14 12  2  0  0  0  0 
 13 14  1  0  0  0  0 
M  END
> <Name>
Benzoic acid, 2-hydroxy-, 2-methylpropyl ester

> <Source>
NIST2DMolFile

> <Tox>
2.095

> <CAS>
87-19-4

$$$$

  CDK

 15 15  0  0  0  0  0  0  0  0999 V2000
    1.7702    0.5058    0.0000 C   0  0  0  0  0  0  0  0  0  0  0  0
    1.7702    1.5173    0.0000 C   0  0  0  0  0  0  0  0  0  0  0  0
    0.8598    0.0000    0.0000 C   0  0  0  0  0  0  0  0  0  0  0  0
    0.8598    1.9725    0.0000 C   0  0  0  0  0  0  0  0  0  0  0  0
    2.6300    1.9219    0.0000 C   0  0  0  0  0  0  0  0  0  0  0  0
    0.0000    0.5058    0.0000 C   0  0  0  0  0  0  0  0  0  0  0  0
    0.0000    1.5173    0.0000 C   0  0  0  0  0  0  0  0  0  0  0  0
    0.8598    2.9841    0.0000 O   0  0  0  0  0  0  0  0  0  0  0  0
    3.5404    1.5173    0.0000 O   0  0  0  0  0  0  0  0  0  0  0  0
    2.6300    2.9841    0.0000 O   0  0  0  0  0  0  0  0  0  0  0  0
    4.3496    1.9725    0.0000 C   0  0  0  0  0  0  0  0  0  0  0  0
    5.2095    1.5173    0.0000 C   0  0  0  0  0  0  0  0  0  0  0  0
    6.1199    1.9725    0.0000 C   0  0  0  0  0  0  0  0  0  0  0  0
    7.0302    1.5679    0.0000 C   0  0  0  0  0  0  0  0  0  0  0  0
    6.1199    2.9841    0.0000 C   0  0  0  0  0  0  0  0  0  0  0  0
  2  1  2  0  0  0  0 
  1  3  1  0  0  0  0 
  4  2  1  0  0  0  0 
  2  5  1  0  0  0  0 
  3  6  2  0  0  0  0 
  7  4  2  0  0  0  0 
  4  8  1  0  0  0  0 
  5  9  1  0  0  0  0 
  5 10  2  0  0  0  0 
  6  7  1  0  0  0  0 
 11  9  1  0  0  0  0 
 12 11  1  0  0  0  0 
 13 12  1  0  0  0  0 
 14 13  1  0  0  0  0 
 13 15  1  0  0  0  0 
M  END
> <Name>
Benzoic acid, 2-hydroxy-, 3-methylbutyl ester

> <Source>
NIST2DMolFile

> <Tox>
1.800

> <CAS>
87-20-7

$$$$

  CDK

 12 12  0  0  0  0  0  0  0  0999 V2000
    3.4554   -3.9875    0.0000 O   0  0  0  0  0  0  0  0  0  0  0  0
    3.4554   -2.6607    0.0000 C   0  0  0  0  0  0  0  0  0  0  0  0
    4.6095   -1.9903    0.0000 O   0  0  0  0  0  0  0  0  0  0  0  0
    2.3013   -1.9903    0.0000 C   0  0  0  0  0  0  0  0  0  0  0  0
    5.7567   -2.6607    0.0000 C   0  0  0  0  0  0  0  0  0  0  0  0
    1.1541   -2.6607    0.0000 C   0  0  0  0  0  0  0  0  0  0  0  0
    2.3013   -0.6634    0.0000 C   0  0  0  0  0  0  0  0  0  0  0  0
    6.9108   -1.9903    0.0000 C   0  0  0  0  0  0  0  0  0  0  0  0
    1.1541   -3.9875    0.0000 N   0  0  0  0  0  0  0  0  0  0  0  0
    0.0000   -1.9903    0.0000 C   0  0  0  0  0  0  0  0  0  0  0  0
    1.1541   -0.0000    0.0000 C   0  0  0  0  0  0  0  0  0  0  0  0
    0.0000   -0.6634    0.0000 C   0  0  0  0  0  0  0  0  0  0  0  0
  1  2  2  0  0  0  0 
  2  3  1  0  0  0  0 
  2  4  1  0  0  0  0 
  3  5  1  0  0  0  0 
  4  6  2  0  0  0  0 
  4  7  1  0  0  0  0 
  5  8  1  0  0  0  0 
  6  9  1  0  0  0  0 
  6 10  1  0  0  0  0 
 11  7  2  0  0  0  0 
 10 12  2  0  0  0  0 
 12 11  1  0  0  0  0 
M  END
> <Name>
Anthranilic acid, ethyl ester (6CI,7CI,8CI)

> <Source>
DSSTox2DMolFile

> <Tox>
1.644

> <CAS>
87-25-2

$$$$

  CDK

 18 19  0  0  0  0  0  0  0  0999 V2000
    0.5019    1.9572    0.0000 C   0  0  0  0  0  0  0  0  0  0  0  0
    0.0000    1.1041    0.0000 C   0  0  0  0  0  0  0  0  0  0  0  0
    1.5056    1.9572    0.0000 C   0  0  0  0  0  0  0  0  0  0  0  0
    0.5019    0.2007    0.0000 C   0  0  0  0  0  0  0  0  0  0  0  0
    2.0074    1.1041    0.0000 C   0  0  0  0  0  0  0  0  0  0  0  0
    1.5056    0.2007    0.0000 C   0  0  0  0  0  0  0  0  0  0  0  0
    3.0111    1.1041    0.0000 N   0  0  0  0  0  0  0  0  0  0  0  0
    3.5632    1.9070    0.0000 C   0  0  0  0  0  0  0  0  0  0  0  0
    3.5632    0.3011    0.0000 N   0  0  0  0  0  0  0  0  0  0  0  0
    3.2620    2.8606    0.0000 O   0  0  0  0  0  0  0  0  0  0  0  0
    4.5167    1.6059    0.0000 C   0  0  0  0  0  0  0  0  0  0  0  0
    4.5167    0.6022    0.0000 C   0  0  0  0  0  0  0  0  0  0  0  0
    3.9145    3.5632    0.0000 C   0  0  0  0  0  0  0  0  0  0  0  0
    5.3196    0.0000    0.0000 C   0  0  0  0  0  0  0  0  0  0  0  0
    3.6133    4.5167    0.0000 N   0  0  0  0  0  0  0  0  0  0  0  0
    4.9182    3.3624    0.0000 O   0  0  0  0  0  0  0  0  0  0  0  0
    2.6598    4.7174    0.0000 C   0  0  0  0  0  0  0  0  0  0  0  0
    4.3159    5.2695    0.0000 C   0  0  0  0  0  0  0  0  0  0  0  0
  1  2  2  0  0  0  0 
  3  1  1  0  0  0  0 
  2  4  1  0  0  0  0 
  5  3  2  0  0  0  0 
  4  6  2  0  0  0  0 
  5  7  1  0  0  0  0 
  6  5  1  0  0  0  0 
  8  7  1  0  0  0  0 
  7  9  1  0  0  0  0 
  8 10  1  0  0  0  0 
 11  8  2  0  0  0  0 
  9 12  2  0  0  0  0 
 10 13  1  0  0  0  0 
 12 11  1  0  0  0  0 
 12 14  1  0  0  0  0 
 13 15  1  0  0  0  0 
 13 16  2  0  0  0  0 
 15 17  1  0  0  0  0 
 15 18  1  0  0  0  0 
M  END
> <Name>
Carbamic acid, dimethyl-, 3-methyl-1-phenyl-1H-pyrazol-5-yl ester (9CI)

> <Source>
NIST2DMolFile

> <Tox>
3.597

> <CAS>
87-47-8

$$$$

  CDK

  9  9  0  0  0  0  0  0  0  0999 V2000
    1.3315   -4.6073    0.0000 N   0  0  0  0  0  0  0  0  0  0  0  0
    1.9950   -3.4555    0.0000 C   0  0  0  0  0  0  0  0  0  0  0  0
    1.3315   -2.3037    0.0000 C   0  0  0  0  0  0  0  0  0  0  0  0
    3.3265   -3.4555    0.0000 C   0  0  0  0  0  0  0  0  0  0  0  0
    1.9950   -1.1518    0.0000 C   0  0  0  0  0  0  0  0  0  0  0  0
    0.0000   -2.3037    0.0000 C   0  0  0  0  0  0  0  0  0  0  0  0
    3.9899   -2.3037    0.0000 C   0  0  0  0  0  0  0  0  0  0  0  0
    3.3265   -1.1518    0.0000 C   0  0  0  0  0  0  0  0  0  0  0  0
    1.3315   -0.0000    0.0000 C   0  0  0  0  0  0  0  0  0  0  0  0
  1  2  1  0  0  0  0 
  2  3  2  0  0  0  0 
  2  4  1  0  0  0  0 
  3  5  1  0  0  0  0 
  3  6  1  0  0  0  0 
  7  4  2  0  0  0  0 
  5  8  2  0  0  0  0 
  5  9  1  0  0  0  0 
  8  7  1  0  0  0  0 
M  END
> <Name>
Benzenamine, 2,3-dimethyl-

> <Source>
DSSTox2DMolFile

> <Tox>
2.114

> <CAS>
87-59-2

$$$$

  CDK

  9  9  0  0  0  0  0  0  0  0999 V2000
    0.0000   -2.3037    0.0000 Cl  0  0  0  0  0  0  0  0  0  0  0  0
    1.3315   -2.3037    0.0000 C   0  0  0  0  0  0  0  0  0  0  0  0
    1.9950   -1.1518    0.0000 C   0  0  0  0  0  0  0  0  0  0  0  0
    1.9950   -3.4555    0.0000 C   0  0  0  0  0  0  0  0  0  0  0  0
    1.3315   -0.0000    0.0000 Cl  0  0  0  0  0  0  0  0  0  0  0  0
    3.3265   -1.1518    0.0000 C   0  0  0  0  0  0  0  0  0  0  0  0
    3.3265   -3.4555    0.0000 C   0  0  0  0  0  0  0  0  0  0  0  0
    1.3315   -4.6073    0.0000 Cl  0  0  0  0  0  0  0  0  0  0  0  0
    3.9899   -2.3037    0.0000 C   0  0  0  0  0  0  0  0  0  0  0  0
  1  2  1  0  0  0  0 
  2  3  2  0  0  0  0 
  2  4  1  0  0  0  0 
  3  5  1  0  0  0  0 
  3  6  1  0  0  0  0 
  7  4  2  0  0  0  0 
  4  8  1  0  0  0  0 
  6  9  2  0  0  0  0 
  9  7  1  0  0  0  0 
M  END
> <Name>
Benzene, 1,2,3-trichloro-

> <Source>
DSSTox2DMolFile

> <Tox>
1.996

> <CAS>
87-61-6

$$$$

  CDK

  9  9  0  0  0  0  0  0  0  0999 V2000
    0.0000   -2.3037    0.0000 N   0  0  0  0  0  0  0  0  0  0  0  0
    1.3315   -2.3037    0.0000 C   0  0  0  0  0  0  0  0  0  0  0  0
    1.9950   -1.1518    0.0000 C   0  0  0  0  0  0  0  0  0  0  0  0
    1.9950   -3.4555    0.0000 C   0  0  0  0  0  0  0  0  0  0  0  0
    3.3265   -1.1518    0.0000 C   0  0  0  0  0  0  0  0  0  0  0  0
    1.3315   -0.0000    0.0000 C   0  0  0  0  0  0  0  0  0  0  0  0
    3.3265   -3.4555    0.0000 C   0  0  0  0  0  0  0  0  0  0  0  0
    1.3315   -4.6073    0.0000 C   0  0  0  0  0  0  0  0  0  0  0  0
    3.9899   -2.3037    0.0000 C   0  0  0  0  0  0  0  0  0  0  0  0
  1  2  1  0  0  0  0 
  2  3  2  0  0  0  0 
  2  4  1  0  0  0  0 
  3  5  1  0  0  0  0 
  3  6  1  0  0  0  0 
  7  4  2  0  0  0  0 
  4  8  1  0  0  0  0 
  5  9  2  0  0  0  0 
  9  7  1  0  0  0  0 
M  END
> <Name>
Benzenamine, 2,6-dimethyl-

> <Source>
DSSTox2DMolFile

> <Tox>
2.159

> <CAS>
87-62-7

$$$$

  CDK

  8  7  0  0  0  0  0  0  0  0999 V2000
    0.0901    1.0176   -0.0817 C   0  0  0  0  0  0  0  0  0  0  0  0
   -0.0934   -0.3337    0.5858 C   0  0  0  0  0  0  0  0  0  0  0  0
    0.1246    1.3174   -1.2615 O   0  0  0  0  0  0  0  0  0  0  0  0
    0.2465    2.0554    0.7766 O   0  0  0  0  0  0  0  0  0  0  0  0
   -1.0862   -1.2041   -0.1855 C   0  0  0  0  0  0  0  0  0  0  0  0
    1.2656   -1.0196    0.7599 C   0  0  0  0  0  0  0  0  0  0  0  0
   -2.5150   -0.7486    0.0107 C   0  0  0  0  0  0  0  0  0  0  0  0
    1.9456   -1.4094   -0.5332 C   0  0  0  0  0  0  0  0  0  0  0  0
  1  2  1  0  0  0  0 
  1  3  2  0  0  0  0 
  1  4  1  0  0  0  0 
  2  5  1  0  0  0  0 
  2  6  1  0  0  0  0 
  5  7  1  0  0  0  0 
  6  8  1  0  0  0  0 
M  END
> <Name>
Butanoic acid, 2-ethyl-

> <Source>
DougDB3DMolFile

> <Tox>
1.723

> <CAS>
88-09-5

$$$$

  CDK

  8  7  0  0  0  0  0  0  0  0999 V2000
    1.5263    1.0175    0.0000 N   0  0  0  0  0  0  0  0  0  0  0  0
    1.0175    1.8315    0.0000 C   0  0  0  0  0  0  0  0  0  0  0  0
    1.0175    0.1526    0.0000 C   0  0  0  0  0  0  0  0  0  0  0  0
    2.4929    1.0175    0.0000 C   0  0  0  0  0  0  0  0  0  0  0  0
    0.0000    1.8315    0.0000 C   0  0  0  0  0  0  0  0  0  0  0  0
    0.0000    0.1526    0.0000 C   0  0  0  0  0  0  0  0  0  0  0  0
    2.4929    0.0000    0.0000 O   0  0  0  0  0  0  0  0  0  0  0  0
    3.5104    1.0175    0.0000 Cl  0  0  0  0  0  0  0  0  0  0  0  0
  1  2  1  0  0  0  0 
  1  3  1  0  0  0  0 
  1  4  1  0  0  0  0 
  2  5  1  0  0  0  0 
  3  6  1  0  0  0  0 
  4  7  2  0  0  0  0 
  4  8  1  0  0  0  0 
M  END
> <Name>
Carbamoyl chloride, diethyl-

> <Source>
NIST2DMolFile

> <Tox>
1.701

> <CAS>
88-10-8

$$$$

  CDK

 19 19  0  0  0  0  0  0  0  0999 V2000
    2.4775    1.7191    0.0000 C   0  0  0  0  0  0  0  0  0  0  0  0
    1.5169    1.7191    0.0000 C   0  0  0  0  0  0  0  0  0  0  0  0
    2.9831    2.6292    0.0000 C   0  0  0  0  0  0  0  0  0  0  0  0
    1.0112    2.6292    0.0000 C   0  0  0  0  0  0  0  0  0  0  0  0
    1.0112    0.9101    0.0000 C   0  0  0  0  0  0  0  0  0  0  0  0
    2.4775    3.4888    0.0000 C   0  0  0  0  0  0  0  0  0  0  0  0
    3.9944    2.6292    0.0000 C   0  0  0  0  0  0  0  0  0  0  0  0
    1.5169    3.4888    0.0000 C   0  0  0  0  0  0  0  0  0  0  0  0
    0.0000    2.6292    0.0000 O   0  0  0  0  0  0  0  0  0  0  0  0
    0.1517    1.3652    0.0000 C   0  0  0  0  0  0  0  0  0  0  0  0
    0.5056    0.0000    0.0000 C   0  0  0  0  0  0  0  0  0  0  0  0
    1.8708    0.4045    0.0000 C   0  0  0  0  0  0  0  0  0  0  0  0
    4.5506    3.4888    0.0000 N   0  0  0  0  0  0  0  0  0  0  0  0
    1.0112    4.3483    0.0000 C   0  0  0  0  0  0  0  0  0  0  0  0
    5.5112    3.4888    0.0000 C   0  0  0  0  0  0  0  0  0  0  0  0
    4.0449    4.3483    0.0000 C   0  0  0  0  0  0  0  0  0  0  0  0
    1.8708    4.8539    0.0000 C   0  0  0  0  0  0  0  0  0  0  0  0
    0.5056    5.2584    0.0000 C   0  0  0  0  0  0  0  0  0  0  0  0
    0.1517    3.8427    0.0000 C   0  0  0  0  0  0  0  0  0  0  0  0
  2  1  2  0  0  0  0 
  1  3  1  0  0  0  0 
  4  2  1  0  0  0  0 
  2  5  1  0  0  0  0 
  3  6  2  0  0  0  0 
  3  7  1  0  0  0  0 
  8  4  2  0  0  0  0 
  4  9  1  0  0  0  0 
  5 10  1  0  0  0  0 
  5 11  1  0  0  0  0 
  5 12  1  0  0  0  0 
  6  8  1  0  0  0  0 
  7 13  1  0  0  0  0 
  8 14  1  0  0  0  0 
 13 15  1  0  0  0  0 
 13 16  1  0  0  0  0 
 14 17  1  0  0  0  0 
 14 18  1  0  0  0  0 
 14 19  1  0  0  0  0 
M  END
> <Name>
Phenol, 4-((dimethylamino)methyl)-2,6-bis(1,1-dimethylethyl)-

> <Source>
NIST2DMolFile

> <Tox>
2.408

> <CAS>
88-27-7

$$$$

  CDK

 14 14  0  0  0  0  0  0  0  0999 V2000
    2.0059   -3.4481    0.0000 C   0  0  0  0  0  0  0  0  0  0  0  0
    2.6647   -4.6054    0.0000 C   0  0  0  0  0  0  0  0  0  0  0  0
    0.6766   -3.4481    0.0000 C   0  0  0  0  0  0  0  0  0  0  0  0
    2.6647   -2.3086    0.0000 O   0  0  0  0  0  0  0  0  0  0  0  0
    2.0059   -5.7567    0.0000 C   0  0  0  0  0  0  0  0  0  0  0  0
    3.9941   -4.6054    0.0000 C   0  0  0  0  0  0  0  0  0  0  0  0
    0.0000   -4.6054    0.0000 C   0  0  0  0  0  0  0  0  0  0  0  0
    2.0059   -1.1573    0.0000 C   0  0  0  0  0  0  0  0  0  0  0  0
    0.6766   -5.7567    0.0000 C   0  0  0  0  0  0  0  0  0  0  0  0
    3.9941   -3.2701    0.0000 C   0  0  0  0  0  0  0  0  0  0  0  0
    3.9941   -5.9348    0.0000 C   0  0  0  0  0  0  0  0  0  0  0  0
    5.3235   -4.6054    0.0000 C   0  0  0  0  0  0  0  0  0  0  0  0
    0.6766   -1.1573    0.0000 O   0  0  0  0  0  0  0  0  0  0  0  0
    2.6647   -0.0000    0.0000 C   0  0  0  0  0  0  0  0  0  0  0  0
  1  2  1  0  0  0  0 
  1  3  1  0  0  0  0 
  1  4  1  0  0  0  0 
  2  5  1  0  0  0  0 
  2  6  1  0  0  0  0 
  7  3  1  0  0  0  0 
  4  8  1  0  0  0  0 
  5  9  1  0  0  0  0 
  6 10  1  0  0  0  0 
  6 11  1  0  0  0  0 
  6 12  1  0  0  0  0 
  9  7  1  0  0  0  0 
  8 13  2  0  0  0  0 
  8 14  1  0  0  0  0 
M  END
> <Name>
Cyclohexanol, 2-(1,1-dimethylethyl)-, acetate

> <Source>
DSSTox2DMolFile

> <Tox>
1.635

> <CAS>
88-41-5

$$$$

  CDK

 10 10  0  0  0  0  0  0  0  0999 V2000
    2.6582   -0.0000    0.0000 O   0  0  0  0  0  0  0  0  0  0  0  0
    1.9971   -1.1499    0.0000 C   0  0  0  0  0  0  0  0  0  0  0  0
    2.6582   -2.3044    0.0000 C   0  0  0  0  0  0  0  0  0  0  0  0
    0.6657   -1.1499    0.0000 C   0  0  0  0  0  0  0  0  0  0  0  0
    3.9896   -2.3044    0.0000 N   0  0  0  0  0  0  0  0  0  0  0  0
    1.9971   -3.4542    0.0000 C   0  0  0  0  0  0  0  0  0  0  0  0
    0.0000   -2.3044    0.0000 C   0  0  0  0  0  0  0  0  0  0  0  0
    4.6553   -1.1499    0.0000 O   0  0  0  0  0  0  0  0  0  0  0  0
    4.6553   -3.4542    0.0000 O   0  0  0  0  0  0  0  0  0  0  0  0
    0.6657   -3.4542    0.0000 C   0  0  0  0  0  0  0  0  0  0  0  0
  1  2  1  0  0  0  0 
  2  3  2  0  0  0  0 
  2  4  1  0  0  0  0 
  3  5  1  0  0  0  0 
  3  6  1  0  0  0  0 
  7  4  2  0  0  0  0 
  5  8  1  0  0  0  0 
  5  9  2  0  0  0  0 
  6 10  2  0  0  0  0 
 10  7  1  0  0  0  0 
M  CHG  1   5   1
M  CHG  1   8  -1
M  END
> <Name>
Phenol, 2-nitro-

> <Source>
DSSTox2DMolFile

> <Tox>
2.620

> <CAS>
88-75-5

$$$$

  CDK

 11 11  0  0  0  0  0  0  0  0999 V2000
    1.9803    2.5896    0.0000 C   0  0  0  0  0  0  0  0  0  0  0  0
    1.5233    1.6756    0.0000 C   0  0  0  0  0  0  0  0  0  0  0  0
    2.9958    2.5896    0.0000 C   0  0  0  0  0  0  0  0  0  0  0  0
    1.9803    0.8632    0.0000 C   0  0  0  0  0  0  0  0  0  0  0  0
    0.5078    1.6756    0.0000 C   0  0  0  0  0  0  0  0  0  0  0  0
    3.5036    1.6756    0.0000 C   0  0  0  0  0  0  0  0  0  0  0  0
    2.9958    0.8632    0.0000 C   0  0  0  0  0  0  0  0  0  0  0  0
    1.5233    0.0000    0.0000 Cl  0  0  0  0  0  0  0  0  0  0  0  0
    0.0000    0.8632    0.0000 Cl  0  0  0  0  0  0  0  0  0  0  0  0
    0.0000    2.5896    0.0000 O   0  0  0  0  0  0  0  0  0  0  0  0
    4.5191    1.6756    0.0000 Cl  0  0  0  0  0  0  0  0  0  0  0  0
  1  2  2  0  0  0  0 
  3  1  1  0  0  0  0 
  2  4  1  0  0  0  0 
  2  5  1  0  0  0  0 
  6  3  2  0  0  0  0 
  4  7  2  0  0  0  0 
  4  8  1  0  0  0  0 
  5  9  1  0  0  0  0 
  5 10  2  0  0  0  0 
  6 11  1  0  0  0  0 
  7  6  1  0  0  0  0 
M  END
> <Name>
Benzoyl chloride, 2,4-dichloro-

> <Source>
NIST2DMolFile

> <Tox>
1.655

> <CAS>
89-75-8

$$$$

  CDK

 11 11  0  0  0  0  0  0  0  0999 V2000
   -2.0951    0.2785    0.0000 C   0  0  0  0  0  0  0  0  0  0  0  0
   -2.8079    1.6016    0.0011 C   0  0  0  0  0  0  0  0  0  0  0  0
   -2.7359   -0.7710   -0.0011 O   0  0  0  0  0  0  0  0  0  0  0  0
   -0.6174    0.2492    0.0000 C   0  0  0  0  0  0  0  0  0  0  0  0
    0.0747   -0.9853    0.0002 C   0  0  0  0  0  0  0  0  0  0  0  0
    0.1365    1.4327   -0.0005 C   0  0  0  0  0  0  0  0  0  0  0  0
    1.4807   -1.0270    0.0003 C   0  0  0  0  0  0  0  0  0  0  0  0
   -0.5358   -2.1918    0.0004 O   0  0  0  0  0  0  0  0  0  0  0  0
    1.5162    1.4141   -0.0005 C   0  0  0  0  0  0  0  0  0  0  0  0
    2.1865    0.1748    0.0000 C   0  0  0  0  0  0  0  0  0  0  0  0
    3.5472    0.2342    0.0001 O   0  0  0  0  0  0  0  0  0  0  0  0
  1  2  1  0  0  0  0 
  1  3  2  0  0  0  0 
  1  4  1  0  0  0  0 
  4  5  1  0  0  0  0 
  4  6  2  0  0  0  0 
  5  7  2  0  0  0  0 
  5  8  1  0  0  0  0 
  9  6  1  0  0  0  0 
  7 10  1  0  0  0  0 
 10  9  2  0  0  0  0 
 10 11  1  0  0  0  0 
M  END
> <Name>
Ethanone, 1-(2,4-dihydroxyphenyl)-

> <Source>
DougDB3DMolFile

> <Tox>
1.730

> <CAS>
89-84-9

$$$$

  CDK

  9  9  0  0  0  0  0  0  0  0999 V2000
   -0.6519   -1.8858    0.0000 O   0  0  0  0  0  0  0  0  0  0  0  0
   -0.0912   -1.2806    0.0000 C   0  0  0  0  0  0  0  0  0  0  0  0
   -0.3350   -0.4925    0.0000 C   0  0  0  0  0  0  0  0  0  0  0  0
    0.3794   -0.0800    0.0000 C   0  0  0  0  0  0  0  0  0  0  0  0
   -1.0495   -0.0800    0.0000 C   0  0  0  0  0  0  0  0  0  0  0  0
    0.3794    0.7450    0.0000 C   0  0  0  0  0  0  0  0  0  0  0  0
    1.1839   -0.2629    0.0000 C   0  0  0  0  0  0  0  0  0  0  0  0
   -1.0495    0.7450    0.0000 C   0  0  0  0  0  0  0  0  0  0  0  0
   -0.3350    1.1575    0.0000 C   0  0  0  0  0  0  0  0  0  0  0  0
  1  2  2  0  0  0  0 
  2  3  1  0  0  0  0 
  3  4  1  0  0  0  0 
  3  5  1  0  0  0  0 
  4  6  1  0  0  0  0 
  4  7  1  0  0  0  0 
  8  5  1  0  0  0  0 
  6  9  1  0  0  0  0 
  9  8  2  0  0  0  0 
M  END
> <Name>
3-Cyclohexene-1-carboxaldehyde, 6-methyl-

> <Source>
Smiles

> <Tox>
1.390

> <CAS>
89-94-1

$$$$

  CDK

  9  9  0  0  0  0  0  0  0  0999 V2000
    1.9859   -1.1507    0.0000 C   0  0  0  0  0  0  0  0  0  0  0  0
    2.6540   -2.3061    0.0000 C   0  0  0  0  0  0  0  0  0  0  0  0
    2.6540   -0.0000    0.0000 N   0  0  0  0  0  0  0  0  0  0  0  0
    0.6542   -1.1507    0.0000 C   0  0  0  0  0  0  0  0  0  0  0  0
    3.9857   -2.3061    0.0000 O   0  0  0  0  0  0  0  0  0  0  0  0
    1.9859   -3.4568    0.0000 C   0  0  0  0  0  0  0  0  0  0  0  0
    0.0000   -2.3061    0.0000 C   0  0  0  0  0  0  0  0  0  0  0  0
    4.6399   -1.1507    0.0000 C   0  0  0  0  0  0  0  0  0  0  0  0
    0.6542   -3.4568    0.0000 C   0  0  0  0  0  0  0  0  0  0  0  0
  1  2  1  0  0  0  0 
  1  3  1  0  0  0  0 
  1  4  2  0  0  0  0 
  2  5  1  0  0  0  0 
  2  6  2  0  0  0  0 
  4  7  1  0  0  0  0 
  5  8  1  0  0  0  0 
  6  9  1  0  0  0  0 
  7  9  2  0  0  0  0 
M  END
> <Name>
Benzenamine, 2-methoxy-

> <Source>
DSSTox2DMolFile

> <Tox>
2.030

> <CAS>
90-04-0

$$$$

  CDK

 11 12  0  0  0  0  0  0  0  0999 V2000
    0.0000   -1.5884    0.0000 C   0  0  0  0  0  0  0  0  0  0  0  0
    0.0000   -2.9586    0.0000 C   0  0  0  0  0  0  0  0  0  0  0  0
    1.1854   -0.9151    0.0000 C   0  0  0  0  0  0  0  0  0  0  0  0
    1.1854   -3.6461    0.0000 C   0  0  0  0  0  0  0  0  0  0  0  0
    2.3660   -1.5979    0.0000 C   0  0  0  0  0  0  0  0  0  0  0  0
    2.3660   -2.9634    0.0000 C   0  0  0  0  0  0  0  0  0  0  0  0
    3.5608   -0.9246    0.0000 C   0  0  0  0  0  0  0  0  0  0  0  0
    3.5608   -3.6509    0.0000 C   0  0  0  0  0  0  0  0  0  0  0  0
    4.7414   -1.6073    0.0000 C   0  0  0  0  0  0  0  0  0  0  0  0
    3.5703   -0.0000    0.0000 Cl  0  0  0  0  0  0  0  0  0  0  0  0
    4.7414   -2.9681    0.0000 C   0  0  0  0  0  0  0  0  0  0  0  0
  1  2  1  0  0  0  0 
  1  3  2  0  0  0  0 
  2  4  2  0  0  0  0 
  5  3  1  0  0  0  0 
  4  6  1  0  0  0  0 
  6  5  1  0  0  0  0 
  5  7  2  0  0  0  0 
  6  8  2  0  0  0  0 
  9  7  1  0  0  0  0 
  7 10  1  0  0  0  0 
  8 11  1  0  0  0  0 
 11  9  2  0  0  0  0 
M  END
> <Name>
Naphthalene, 1-chloro-

> <Source>
DSSTox2DMolFile

> <Tox>
2.024

> <CAS>
90-13-1

$$$$

  CDK

 11 12  0  0  0  0  0  0  0  0999 V2000
    3.4555   -0.0000    0.0000 O   0  0  0  0  0  0  0  0  0  0  0  0
    3.4555   -1.3315    0.0000 C   0  0  0  0  0  0  0  0  0  0  0  0
    4.6073   -1.9950    0.0000 C   0  0  0  0  0  0  0  0  0  0  0  0
    2.3037   -1.9950    0.0000 C   0  0  0  0  0  0  0  0  0  0  0  0
    4.6073   -3.3265    0.0000 C   0  0  0  0  0  0  0  0  0  0  0  0
    2.3037   -3.3265    0.0000 C   0  0  0  0  0  0  0  0  0  0  0  0
    1.1518   -1.3315    0.0000 C   0  0  0  0  0  0  0  0  0  0  0  0
    3.4555   -3.9899    0.0000 C   0  0  0  0  0  0  0  0  0  0  0  0
    1.1518   -3.9899    0.0000 C   0  0  0  0  0  0  0  0  0  0  0  0
    0.0000   -1.9950    0.0000 C   0  0  0  0  0  0  0  0  0  0  0  0
    0.0000   -3.3265    0.0000 C   0  0  0  0  0  0  0  0  0  0  0  0
  1  2  1  0  0  0  0 
  2  3  2  0  0  0  0 
  2  4  1  0  0  0  0 
  3  5  1  0  0  0  0 
  6  4  1  0  0  0  0 
  7  4  2  0  0  0  0 
  5  8  2  0  0  0  0 
  8  6  1  0  0  0  0 
  6  9  2  0  0  0  0 
 10  7  1  0  0  0  0 
  9 11  1  0  0  0  0 
 11 10  2  0  0  0  0 
M  END
> <Name>
1-Naphthalenol

> <Source>
DSSTox2DMolFile

> <Tox>
1.887

> <CAS>
90-15-3

$$$$

  CDK

 11 12  0  0  0  0  0  0  0  0999 V2000
    1.1551   -3.9945    0.0000 N   0  0  0  0  0  0  0  0  0  0  0  0
    0.0000   -3.3226    0.0000 N   0  0  0  0  0  0  0  0  0  0  0  0
    2.3102   -3.3226    0.0000 C   0  0  0  0  0  0  0  0  0  0  0  0
    0.0000   -1.9880    0.0000 N   0  0  0  0  0  0  0  0  0  0  0  0
    2.3102   -1.9880    0.0000 C   0  0  0  0  0  0  0  0  0  0  0  0
    3.4469   -3.9945    0.0000 C   0  0  0  0  0  0  0  0  0  0  0  0
    1.1551   -1.3346    0.0000 C   0  0  0  0  0  0  0  0  0  0  0  0
    3.4469   -1.3346    0.0000 C   0  0  0  0  0  0  0  0  0  0  0  0
    4.6019   -3.3226    0.0000 C   0  0  0  0  0  0  0  0  0  0  0  0
    1.1551   -0.0000    0.0000 O   0  0  0  0  0  0  0  0  0  0  0  0
    4.6019   -1.9880    0.0000 C   0  0  0  0  0  0  0  0  0  0  0  0
  1  2  1  0  0  0  0 
  1  3  1  0  0  0  0 
  2  4  2  0  0  0  0 
  5  3  2  0  0  0  0 
  3  6  1  0  0  0  0 
  4  7  1  0  0  0  0 
  7  5  1  0  0  0  0 
  5  8  1  0  0  0  0 
  6  9  2  0  0  0  0 
  7 10  2  0  0  0  0 
 11  8  2  0  0  0  0 
  9 11  1  0  0  0  0 
M  END
> <Name>
1,2,3-Benzotriazin-4(3H)-one (8CI)

> <Source>
DSSTox2DMolFile

> <Tox>
2.393

> <CAS>
90-16-4

$$$$

  CDK

 15 15  0  0  0  0  0  0  0  0999 V2000
   -0.5757   -2.7164    0.1982 C   0  0  0  0  0  0  0  0  0  0  0  0
   -1.0717   -3.7476   -0.7749 C   0  0  0  0  0  0  0  0  0  0  0  0
   -0.1516   -2.8905    1.3211 O   0  0  0  0  0  0  0  0  0  0  0  0
   -0.6504   -1.4491   -0.3184 O   0  0  0  0  0  0  0  0  0  0  0  0
   -0.1793   -0.3379    0.4531 C   0  0  0  0  0  0  0  0  0  0  0  0
    1.2820   -0.0749    0.1858 C   0  0  0  0  0  0  0  0  0  0  0  0
   -1.0703    0.8431    0.0400 C   0  0  0  0  0  0  0  0  0  0  0  0
    1.7948   -0.0523   -1.1116 C   0  0  0  0  0  0  0  0  0  0  0  0
    2.1389    0.1276    1.2700 C   0  0  0  0  0  0  0  0  0  0  0  0
   -0.5143    2.3274    0.8003 Cl  0  0  0  0  0  0  0  0  0  0  0  0
   -2.7265    0.5617    0.5830 Cl  0  0  0  0  0  0  0  0  0  0  0  0
   -1.1209    1.0993   -1.6935 Cl  0  0  0  0  0  0  0  0  0  0  0  0
    3.1500    0.1767   -1.3216 C   0  0  0  0  0  0  0  0  0  0  0  0
    3.4923    0.3606    1.0544 C   0  0  0  0  0  0  0  0  0  0  0  0
    3.9994    0.3852   -0.2405 C   0  0  0  0  0  0  0  0  0  0  0  0
  1  2  1  0  0  0  0 
  1  3  2  0  0  0  0 
  1  4  1  0  0  0  0 
  4  5  1  0  0  0  0 
  5  6  1  0  0  0  0 
  5  7  1  0  0  0  0 
  6  8  1  0  0  0  0 
  6  9  2  0  0  0  0 
  7 10  1  0  0  0  0 
  7 11  1  0  0  0  0 
  7 12  1  0  0  0  0 
  8 13  2  0  0  0  0 
 14  9  1  0  0  0  0 
 13 15  1  0  0  0  0 
 15 14  2  0  0  0  0 
M  END
> <Name>
Benzyl alcohol, alpha-(trichloromethyl)-, acetate (9CI)

> <Source>
DougDB3DMolFile

> <Tox>
1.595

> <CAS>
90-17-5

$$$$

  CDK

 13 14  0  0  0  0  0  0  0  0999 V2000
    5.7578   -3.3248    0.0000 C   0  0  0  0  0  0  0  0  0  0  0  0
    6.9122   -3.9883    0.0000 O   0  0  0  0  0  0  0  0  0  0  0  0
    4.6104   -3.9883    0.0000 C   0  0  0  0  0  0  0  0  0  0  0  0
    5.7578   -1.9907    0.0000 C   0  0  0  0  0  0  0  0  0  0  0  0
    3.4561   -3.3248    0.0000 C   0  0  0  0  0  0  0  0  0  0  0  0
    4.6104   -1.3271    0.0000 C   0  0  0  0  0  0  0  0  0  0  0  0
    2.3018   -3.9883    0.0000 O   0  0  0  0  0  0  0  0  0  0  0  0
    3.4561   -1.9907    0.0000 C   0  0  0  0  0  0  0  0  0  0  0  0
    1.1543   -3.3248    0.0000 C   0  0  0  0  0  0  0  0  0  0  0  0
    2.3018   -1.3271    0.0000 C   0  0  0  0  0  0  0  0  0  0  0  0
    0.0000   -3.9883    0.0000 O   0  0  0  0  0  0  0  0  0  0  0  0
    1.1543   -1.9907    0.0000 C   0  0  0  0  0  0  0  0  0  0  0  0
    2.3018   -0.0000    0.0000 C   0  0  0  0  0  0  0  0  0  0  0  0
  1  2  1  0  0  0  0 
  1  3  2  0  0  0  0 
  1  4  1  0  0  0  0 
  3  5  1  0  0  0  0 
  6  4  2  0  0  0  0 
  5  7  1  0  0  0  0 
  5  8  2  0  0  0  0 
  8  6  1  0  0  0  0 
  7  9  1  0  0  0  0 
 10  8  1  0  0  0  0 
  9 11  2  0  0  0  0 
  9 12  1  0  0  0  0 
 12 10  2  0  0  0  0 
 10 13  1  0  0  0  0 
M  END
> <Name>
2H-1-Benzopyran-2-one, 7-hydroxy-4-methyl-

> <Source>
DSSTox2DMolFile

> <Tox>
1.660

> <CAS>
90-33-5

$$$$

  CDK

 17 20  0  0  0  0  0  0  0  0999 V2000
    2.2149   -0.9235    0.0000 C   0  0  0  0  0  0  0  0  0  0  0  0
    3.1308   -0.0000    0.0000 C   0  0  0  0  0  0  0  0  0  0  0  0
    1.1187   -0.2628    0.0000 C   0  0  0  0  0  0  0  0  0  0  0  0
    2.2149   -2.1848    0.0000 N   0  0  0  0  0  0  0  0  0  0  0  0
    4.3771   -0.0000    0.0000 C   0  0  0  0  0  0  0  0  0  0  0  0
    4.3771   -1.1863    0.0000 C   0  0  0  0  0  0  0  0  0  0  0  0
    0.0000   -0.9235    0.0000 C   0  0  0  0  0  0  0  0  0  0  0  0
    3.1308   -3.0858    0.0000 C   0  0  0  0  0  0  0  0  0  0  0  0
    1.1187   -2.8230    0.0000 C   0  0  0  0  0  0  0  0  0  0  0  0
    5.2931   -0.9235    0.0000 N   0  0  0  0  0  0  0  0  0  0  0  0
    4.3771   -3.0858    0.0000 C   0  0  0  0  0  0  0  0  0  0  0  0
    0.0000   -2.1848    0.0000 C   0  0  0  0  0  0  0  0  0  0  0  0
    6.3893   -0.2628    0.0000 C   0  0  0  0  0  0  0  0  0  0  0  0
    5.2931   -2.1848    0.0000 C   0  0  0  0  0  0  0  0  0  0  0  0
    7.5080   -0.9235    0.0000 C   0  0  0  0  0  0  0  0  0  0  0  0
    6.3893   -2.8230    0.0000 C   0  0  0  0  0  0  0  0  0  0  0  0
    7.5080   -2.1848    0.0000 C   0  0  0  0  0  0  0  0  0  0  0  0
  1  2  1  0  0  0  0 
  1  3  1  6  0  0  0 
  1  4  1  0  0  0  0 
  2  5  1  0  0  0  0 
  2  6  1  1  0  0  0 
  3  7  1  0  0  0  0 
  4  8  1  0  0  0  0 
  4  9  1  0  0  0  0 
  5 10  1  0  0  0  0 
 11  6  1  1  0  0  0 
  7 12  1  0  0  0  0 
  8 11  1  0  0  0  0 
  9 12  1  0  0  0  0 
 10 13  1  0  0  0  0 
 10 14  1  0  0  0  0 
 11 14  1  0  0  0  0 
 13 15  1  0  0  0  0 
 14 16  1  1  0  0  0 
 15 17  1  0  0  0  0 
 16 17  1  0  0  0  0 
M  END
> <Name>
7,14-Methano-2H,6H-dipyrido(1,2-a:1',2'-e)(1,5)diazocine, dodecahydro-, (7S-(7alpha,7aalpha,14alpha,14abeta))-

> <Source>
DSSTox2DMolFile

> <Tox>
2.388

> <CAS>
90-39-1

$$$$

  CDK

 13 14  0  0  0  0  0  0  0  0999 V2000
   -1.6092    0.9556    0.3910 C   0  0  0  0  0  0  0  0  0  0  0  0
   -0.6678   -0.1363    0.9003 C   0  0  0  0  0  0  0  0  0  0  0  0
   -2.2031    0.7450   -0.9873 C   0  0  0  0  0  0  0  0  0  0  0  0
   -1.8867    1.9260    1.0688 O   0  0  0  0  0  0  0  0  0  0  0  0
   -1.4087   -1.4719    0.7801 C   0  0  0  0  0  0  0  0  0  0  0  0
    0.6588   -0.1663    0.1175 C   0  0  0  0  0  0  0  0  0  0  0  0
   -2.8290   -0.6363   -1.1014 C   0  0  0  0  0  0  0  0  0  0  0  0
   -1.8574   -1.7155   -0.6526 C   0  0  0  0  0  0  0  0  0  0  0  0
    1.2855    1.2199   -0.0032 C   0  0  0  0  0  0  0  0  0  0  0  0
    1.6512   -1.1364    0.7743 C   0  0  0  0  0  0  0  0  0  0  0  0
    2.4993    1.2042   -0.9237 C   0  0  0  0  0  0  0  0  0  0  0  0
    3.1046   -0.7647    0.5100 C   0  0  0  0  0  0  0  0  0  0  0  0
    3.2751   -0.1048   -0.8455 C   0  0  0  0  0  0  0  0  0  0  0  0
  1  2  1  0  0  0  0 
  1  3  1  0  0  0  0 
  1  4  2  0  0  0  0 
  2  5  1  0  0  0  0 
  2  6  1  0  0  0  0 
  7  3  1  0  0  0  0 
  5  8  1  0  0  0  0 
  6  9  1  0  0  0  0 
  6 10  1  0  0  0  0 
  8  7  1  0  0  0  0 
  9 11  1  0  0  0  0 
 12 10  1  0  0  0  0 
 11 13  1  0  0  0  0 
 13 12  1  0  0  0  0 
M  END
> <Name>
2-Cyclohexyl cyclohexanone

> <Source>
DougDB3DMolFile

> <Tox>
1.557

> <CAS>
90-42-6

$$$$

  CDK

 12 12  0  0  0  0  0  0  0  0999 V2000
    2.3050   -2.6714    0.0000 C   0  0  0  0  0  0  0  0  0  0  0  0
    2.3050   -4.0171    0.0000 C   0  0  0  0  0  0  0  0  0  0  0  0
    1.1658   -2.0186    0.0000 C   0  0  0  0  0  0  0  0  0  0  0  0
    3.4575   -2.0186    0.0000 O   0  0  0  0  0  0  0  0  0  0  0  0
    3.4575   -4.6767    0.0000 C   0  0  0  0  0  0  0  0  0  0  0  0
    1.1658   -4.6767    0.0000 C   0  0  0  0  0  0  0  0  0  0  0  0
    1.1858   -0.6729    0.0000 N   0  0  0  0  0  0  0  0  0  0  0  0
    0.0000   -2.6714    0.0000 C   0  0  0  0  0  0  0  0  0  0  0  0
    3.4575   -6.0224    0.0000 C   0  0  0  0  0  0  0  0  0  0  0  0
    1.1658   -6.0224    0.0000 C   0  0  0  0  0  0  0  0  0  0  0  0
    0.0333   -0.0000    0.0000 C   0  0  0  0  0  0  0  0  0  0  0  0
    2.3050   -6.6619    0.0000 C   0  0  0  0  0  0  0  0  0  0  0  0
  1  2  1  1  0  0  0 
  1  3  1  0  0  0  0 
  1  4  1  0  0  0  0 
  2  5  1  0  0  0  0 
  2  6  2  0  0  0  0 
  3  7  1  6  0  0  0 
  3  8  1  0  0  0  0 
  5  9  2  0  0  0  0 
  6 10  1  0  0  0  0 
  7 11  1  0  0  0  0 
  9 12  1  0  0  0  0 
 10 12  2  0  0  0  0 
M  END
> <Name>
Benzenemethanol, alpha-((1S)-1-(methylamino)ethyl)-, (alpha-S)- (9CI)

> <Source>
DSSTox2DMolFile

> <Tox>
2.399

> <CAS>
90-82-4

$$$$

  CDK

 13 13  0  0  0  0  0  0  0  0999 V2000
    1.7425    0.5125    0.0000 C   0  0  0  0  0  0  0  0  0  0  0  0
    1.7425    1.4862    0.0000 C   0  0  0  0  0  0  0  0  0  0  0  0
    0.8712    0.0000    0.0000 C   0  0  0  0  0  0  0  0  0  0  0  0
    0.8712    1.9987    0.0000 C   0  0  0  0  0  0  0  0  0  0  0  0
    2.6649    1.9987    0.0000 C   0  0  0  0  0  0  0  0  0  0  0  0
    0.0000    0.5125    0.0000 C   0  0  0  0  0  0  0  0  0  0  0  0
    0.0000    1.4862    0.0000 C   0  0  0  0  0  0  0  0  0  0  0  0
    3.5362    1.4862    0.0000 C   0  0  0  0  0  0  0  0  0  0  0  0
    2.6649    3.0237    0.0000 C   0  0  0  0  0  0  0  0  0  0  0  0
    4.3561    1.9987    0.0000 O   0  0  0  0  0  0  0  0  0  0  0  0
    3.5362    0.5125    0.0000 O   0  0  0  0  0  0  0  0  0  0  0  0
    5.2274    1.4862    0.0000 C   0  0  0  0  0  0  0  0  0  0  0  0
    4.3561    0.0000    0.0000 C   0  0  0  0  0  0  0  0  0  0  0  0
  2  1  2  0  0  0  0 
  1  3  1  0  0  0  0 
  4  2  1  0  0  0  0 
  2  5  1  0  0  0  0 
  3  6  2  0  0  0  0 
  7  4  2  0  0  0  0 
  5  8  1  0  0  0  0 
  5  9  1  0  0  0  0 
  6  7  1  0  0  0  0 
  8 10  1  0  0  0  0 
  8 11  1  0  0  0  0 
 10 12  1  0  0  0  0 
 11 13  1  0  0  0  0 
M  END
> <Name>
2-Phenylpropionaldehyde-dimethyl acetal

> <Source>
NIST2DMolFile

> <Tox>
1.989

> <CAS>
90-87-9

$$$$

  CDK

 10 10  0  0  0  0  0  0  0  0999 V2000
    0.7106    0.1231    0.0019 C   0  0  0  0  0  0  0  0  0  0  0  0
   -0.7108    0.1228    0.0019 C   0  0  0  0  0  0  0  0  0  0  0  0
    1.3997   -1.0890    0.0003 C   0  0  0  0  0  0  0  0  0  0  0  0
    1.2990    1.3726    0.0049 O   0  0  0  0  0  0  0  0  0  0  0  0
   -1.3992   -1.0898    0.0009 C   0  0  0  0  0  0  0  0  0  0  0  0
   -1.2998    1.3721    0.0046 O   0  0  0  0  0  0  0  0  0  0  0  0
    0.6934   -2.2904   -0.0011 C   0  0  0  0  0  0  0  0  0  0  0  0
    2.7034    1.4234   -0.0056 C   0  0  0  0  0  0  0  0  0  0  0  0
   -0.6920   -2.2908   -0.0008 C   0  0  0  0  0  0  0  0  0  0  0  0
   -2.7042    1.4221   -0.0058 C   0  0  0  0  0  0  0  0  0  0  0  0
  1  2  1  0  0  0  0 
  1  3  2  0  0  0  0 
  1  4  1  0  0  0  0 
  2  5  2  0  0  0  0 
  2  6  1  0  0  0  0 
  7  3  1  0  0  0  0 
  4  8  1  0  0  0  0 
  5  9  1  0  0  0  0 
  6 10  1  0  0  0  0 
  9  7  2  0  0  0  0 
M  END
> <Name>
Benzene, 1,2-dimethoxy-

> <Source>
DougDB3DMolFile

> <Tox>
2.191

> <CAS>
91-16-7

$$$$

  CDK

 17 18  0  0  0  0  0  0  0  0999 V2000
    0.0000   -4.6045    0.0000 C   0  0  0  0  0  0  0  0  0  0  0  0
    0.6623   -3.4554    0.0000 C   0  0  0  0  0  0  0  0  0  0  0  0
    0.0000   -2.2983    0.0000 C   0  0  0  0  0  0  0  0  0  0  0  0
    1.9950   -3.4554    0.0000 C   0  0  0  0  0  0  0  0  0  0  0  0
    0.6623   -1.1491    0.0000 C   0  0  0  0  0  0  0  0  0  0  0  0
    2.6574   -2.2983    0.0000 C   0  0  0  0  0  0  0  0  0  0  0  0
    2.6574   -4.6045    0.0000 C   0  0  0  0  0  0  0  0  0  0  0  0
    0.0000   -0.0000    0.0000 O   0  0  0  0  0  0  0  0  0  0  0  0
    1.9950   -1.1491    0.0000 O   0  0  0  0  0  0  0  0  0  0  0  0
    3.9901   -2.2983    0.0000 C   0  0  0  0  0  0  0  0  0  0  0  0
    3.9901   -4.6045    0.0000 C   0  0  0  0  0  0  0  0  0  0  0  0
    4.6524   -3.4554    0.0000 C   0  0  0  0  0  0  0  0  0  0  0  0
    5.9851   -3.4554    0.0000 N   0  0  0  0  0  0  0  0  0  0  0  0
    6.6474   -2.2983    0.0000 C   0  0  0  0  0  0  0  0  0  0  0  0
    6.6474   -4.6045    0.0000 C   0  0  0  0  0  0  0  0  0  0  0  0
    5.9851   -1.1491    0.0000 C   0  0  0  0  0  0  0  0  0  0  0  0
    7.9801   -4.6045    0.0000 C   0  0  0  0  0  0  0  0  0  0  0  0
  1  2  1  0  0  0  0 
  2  3  2  0  0  0  0 
  2  4  1  0  0  0  0 
  3  5  1  0  0  0  0 
  6  4  1  0  0  0  0 
  7  4  2  0  0  0  0 
  5  8  2  0  0  0  0 
  5  9  1  0  0  0  0 
  9  6  1  0  0  0  0 
  6 10  2  0  0  0  0 
 11  7  1  0  0  0  0 
 10 12  1  0  0  0  0 
 12 11  2  0  0  0  0 
 12 13  1  0  0  0  0 
 13 14  1  0  0  0  0 
 13 15  1  0  0  0  0 
 14 16  1  0  0  0  0 
 15 17  1  0  0  0  0 
M  END
> <Name>
2H-1-Benzopyran-2-one, 7-(diethylamino)-4-methyl-

> <Source>
DSSTox2DMolFile

> <Tox>
1.665

> <CAS>
91-44-1

$$$$

  CDK

 31 33  0  0  0  0  0  0  0  0999 V2000
    0.0000    0.0000    0.0000 O   0  0  0  0  0  0  0  0  0  0  0  0
   -0.2600   -0.6400    0.9800 C   0  0  0  0  0  0  0  0  0  0  0  0
   -0.2400    0.0200    2.3400 C   0  0  0  0  0  0  0  0  0  0  0  0
   -0.6000   -1.9200    0.9800 O   0  0  0  0  0  0  0  0  0  0  0  0
   -0.5600   -0.7400    3.4800 C   0  0  0  0  0  0  0  0  0  0  0  0
    0.0800    1.3800    2.4400 C   0  0  0  0  0  0  0  0  0  0  0  0
   -0.5400   -0.1000    4.7400 C   0  0  0  0  0  0  0  0  0  0  0  0
   -0.9800   -2.3800    3.3600 S   0  0  0  0  0  0  0  0  0  0  0  0
    0.1200    2.0000    3.7000 C   0  0  0  0  0  0  0  0  0  0  0  0
   -0.2000    1.2600    4.8400 C   0  0  0  0  0  0  0  0  0  0  0  0
   -1.0200   -3.3400    5.2200 As  0  0  0  0  0  0  0  0  0  0  0  0
    0.7200   -4.0400    5.6200 C   0  0  0  0  0  0  0  0  0  0  0  0
   -3.0400   -2.9200    5.5200 S   0  0  0  0  0  0  0  0  0  0  0  0
    1.3600   -3.6600    6.8000 C   0  0  0  0  0  0  0  0  0  0  0  0
    1.3400   -4.9400    4.7400 C   0  0  0  0  0  0  0  0  0  0  0  0
   -4.0600   -3.6600    4.4000 C   0  0  0  0  0  0  0  0  0  0  0  0
    2.6400   -4.1800    7.1000 C   0  0  0  0  0  0  0  0  0  0  0  0
    2.6000   -5.4600    5.0400 C   0  0  0  0  0  0  0  0  0  0  0  0
   -5.4600   -3.6400    4.5200 C   0  0  0  0  0  0  0  0  0  0  0  0
   -3.5000   -4.3200    3.2800 C   0  0  0  0  0  0  0  0  0  0  0  0
    3.2600   -5.0800    6.2200 C   0  0  0  0  0  0  0  0  0  0  0  0
   -6.0800   -2.9400    5.7000 C   0  0  0  0  0  0  0  0  0  0  0  0
   -6.2800   -4.2400    3.5600 C   0  0  0  0  0  0  0  0  0  0  0  0
   -4.3200   -4.9400    2.3200 C   0  0  0  0  0  0  0  0  0  0  0  0
    4.5000   -5.5800    6.5200 N   0  0  0  0  0  0  0  0  0  0  0  0
   -5.4000   -2.4000    6.5400 O   0  0  0  0  0  0  0  0  0  0  0  0
   -7.4200   -2.9800    5.7200 O   0  0  0  0  0  0  0  0  0  0  0  0
   -5.7200   -4.9000    2.4600 C   0  0  0  0  0  0  0  0  0  0  0  0
    4.9000   -5.7000    7.8200 C   0  0  0  0  0  0  0  0  0  0  0  0
    6.1400   -6.2200    8.0800 N   0  0  0  0  0  0  0  0  0  0  0  0
    4.1600   -5.3800    8.7000 O   0  0  0  0  0  0  0  0  0  0  0  0
  1  2  2  0  0  0  0 
  2  3  1  0  0  0  0 
  2  4  1  0  0  0  0 
  3  5  2  0  0  0  0 
  3  6  1  0  0  0  0 
  5  7  1  0  0  0  0 
  5  8  1  0  0  0  0 
  9  6  2  0  0  0  0 
  7 10  2  0  0  0  0 
  8 11  1  0  0  0  0 
 10  9  1  0  0  0  0 
 12 11  1  0  0  0  0 
 11 13  1  0  0  0  0 
 14 12  2  0  0  0  0 
 15 12  1  0  0  0  0 
 16 13  1  0  0  0  0 
 17 14  1  0  0  0  0 
 15 18  2  0  0  0  0 
 19 16  2  0  0  0  0 
 16 20  1  0  0  0  0 
 21 17  2  0  0  0  0 
 18 21  1  0  0  0  0 
 22 19  1  0  0  0  0 
 19 23  1  0  0  0  0 
 24 20  2  0  0  0  0 
 21 25  1  0  0  0  0 
 22 26  2  0  0  0  0 
 22 27  1  0  0  0  0 
 23 28  2  0  0  0  0 
 28 24  1  0  0  0  0 
 25 29  1  0  0  0  0 
 29 30  1  0  0  0  0 
 29 31  2  0  0  0  0 
M  END
> <Name>
Benzoic acid, 2,2'-(((4-((aminocarbonyl)amino)phenyl)arsinidene)bis(thio))bis- (9CI)

> <Source>
NIH3DMolFile

> <Tox>
2.627

> <CAS>
91-71-4

$$$$

  CDK

 14 14  0  0  0  0  0  0  0  0999 V2000
    1.5679    0.8598    0.0000 C   0  0  0  0  0  0  0  0  0  0  0  0
    0.5563    0.8598    0.0000 C   0  0  0  0  0  0  0  0  0  0  0  0
    2.0231    1.6690    0.0000 C   0  0  0  0  0  0  0  0  0  0  0  0
    0.0000    1.6690    0.0000 C   0  0  0  0  0  0  0  0  0  0  0  0
    0.0000    0.0000    0.0000 C   0  0  0  0  0  0  0  0  0  0  0  0
    1.5679    2.5794    0.0000 C   0  0  0  0  0  0  0  0  0  0  0  0
    2.9841    1.6690    0.0000 N   0  0  0  0  0  0  0  0  0  0  0  0
    0.5563    2.5794    0.0000 C   0  0  0  0  0  0  0  0  0  0  0  0
    3.4898    0.8598    0.0000 C   0  0  0  0  0  0  0  0  0  0  0  0
    3.4898    2.5289    0.0000 C   0  0  0  0  0  0  0  0  0  0  0  0
    4.5014    0.8598    0.0000 C   0  0  0  0  0  0  0  0  0  0  0  0
    4.5014    2.5289    0.0000 C   0  0  0  0  0  0  0  0  0  0  0  0
    5.0071    0.0000    0.0000 O   0  0  0  0  0  0  0  0  0  0  0  0
    5.0577    3.3887    0.0000 O   0  0  0  0  0  0  0  0  0  0  0  0
  2  1  2  0  0  0  0 
  1  3  1  0  0  0  0 
  4  2  1  0  0  0  0 
  2  5  1  0  0  0  0 
  3  6  2  0  0  0  0 
  3  7  1  0  0  0  0 
  8  4  2  0  0  0  0 
  6  8  1  0  0  0  0 
  7  9  1  0  0  0  0 
  7 10  1  0  0  0  0 
  9 11  1  0  0  0  0 
 10 12  1  0  0  0  0 
 11 13  1  0  0  0  0 
 12 14  1  0  0  0  0 
M  END
> <Name>
Ethanol, 2,2'-((3-methylphenyl)imino)bis-

> <Source>
NIST2DMolFile

> <Tox>
1.799

> <CAS>
91-99-6

$$$$

  CDK

 18 18  0  0  0  0  0  0  0  0999 V2000
    0.0000    0.0000    0.0000 N   0  0  0  0  0  0  0  0  0  0  0  0
    0.9800    0.6600   -0.8600 C   0  0  0  0  0  0  0  0  0  0  0  0
   -1.5600    0.4400   -0.0600 S   0  0  0  0  0  0  0  0  0  0  0  0
    2.0400   -0.3200   -1.3600 C   0  0  0  0  0  0  0  0  0  0  0  0
   -2.2800   -0.3600    0.9200 O   0  0  0  0  0  0  0  0  0  0  0  0
   -2.2400    0.1600   -1.6800 C   0  0  0  0  0  0  0  0  0  0  0  0
   -1.6000    1.8600    0.2400 O   0  0  0  0  0  0  0  0  0  0  0  0
    1.5200   -1.1600   -2.4400 N   0  0  0  0  0  0  0  0  0  0  0  0
    1.9800   -0.9000   -3.8200 C   0  0  0  0  0  0  0  0  0  0  0  0
    0.6000   -2.1400   -2.1800 C   0  0  0  0  0  0  0  0  0  0  0  0
    2.6200   -2.1400   -4.4200 C   0  0  0  0  0  0  0  0  0  0  0  0
   -0.3600   -2.5000   -3.1400 C   0  0  0  0  0  0  0  0  0  0  0  0
    0.6400   -2.8200   -0.9400 C   0  0  0  0  0  0  0  0  0  0  0  0
   -1.3000   -3.5200   -2.8600 C   0  0  0  0  0  0  0  0  0  0  0  0
   -0.3000   -3.8400   -0.6600 C   0  0  0  0  0  0  0  0  0  0  0  0
   -2.3000   -3.8600   -3.9000 C   0  0  0  0  0  0  0  0  0  0  0  0
   -1.2600   -4.1800   -1.6200 C   0  0  0  0  0  0  0  0  0  0  0  0
   -2.1600   -5.1800   -1.3200 N   0  0  0  0  0  0  0  0  0  0  0  0
  1  2  1  0  0  0  0 
  1  3  1  0  0  0  0 
  2  4  1  0  0  0  0 
  5  3  2  0  0  0  0 
  3  6  1  0  0  0  0 
  3  7  2  0  0  0  0 
  4  8  1  0  0  0  0 
  8  9  1  0  0  0  0 
  8 10  1  0  0  0  0 
  9 11  1  0  0  0  0 
 12 10  1  0  0  0  0 
 10 13  2  0  0  0  0 
 14 12  2  0  0  0  0 
 15 13  1  0  0  0  0 
 16 14  1  0  0  0  0 
 14 17  1  0  0  0  0 
 17 15  2  0  0  0  0 
 18 17  1  0  0  0  0 
M  END
> <Name>
Methanesulfonamide, N-(2-((4-amino-3-methylphenyl)ethylamino)ethyl)-

> <Source>
NIH3DMolFile

> <Tox>
2.832

> <CAS>
92-09-1

$$$$

  CDK

 19 20  0  0  0  0  0  0  0  0999 V2000
    6.6540   -3.4601    0.0000 C   0  0  0  0  0  0  0  0  0  0  0  0
    5.9939   -4.6099    0.0000 C   0  0  0  0  0  0  0  0  0  0  0  0
    5.9939   -2.2996    0.0000 C   0  0  0  0  0  0  0  0  0  0  0  0
    4.6631   -4.6099    0.0000 C   0  0  0  0  0  0  0  0  0  0  0  0
    4.6631   -2.2996    0.0000 C   0  0  0  0  0  0  0  0  0  0  0  0
    6.6540   -1.1498    0.0000 C   0  0  0  0  0  0  0  0  0  0  0  0
    3.9924   -3.4601    0.0000 C   0  0  0  0  0  0  0  0  0  0  0  0
    3.9924   -1.1498    0.0000 O   0  0  0  0  0  0  0  0  0  0  0  0
    7.9848   -1.1498    0.0000 C   0  0  0  0  0  0  0  0  0  0  0  0
    2.6616   -1.1498    0.0000 C   0  0  0  0  0  0  0  0  0  0  0  0
    8.6555   -0.0000    0.0000 C   0  0  0  0  0  0  0  0  0  0  0  0
    8.6555   -2.2996    0.0000 C   0  0  0  0  0  0  0  0  0  0  0  0
    1.9909   -2.2996    0.0000 C   0  0  0  0  0  0  0  0  0  0  0  0
    9.9756   -0.0000    0.0000 C   0  0  0  0  0  0  0  0  0  0  0  0
    9.9756   -2.2996    0.0000 C   0  0  0  0  0  0  0  0  0  0  0  0
    0.6601   -2.2996    0.0000 N   0  0  0  0  0  0  0  0  0  0  0  0
   10.6463   -1.1498    0.0000 C   0  0  0  0  0  0  0  0  0  0  0  0
    0.0000   -3.4601    0.0000 C   0  0  0  0  0  0  0  0  0  0  0  0
    0.0000   -1.1498    0.0000 C   0  0  0  0  0  0  0  0  0  0  0  0
  1  2  2  0  0  0  0 
  1  3  1  0  0  0  0 
  2  4  1  0  0  0  0 
  5  3  2  0  0  0  0 
  3  6  1  0  0  0  0 
  4  7  2  0  0  0  0 
  7  5  1  0  0  0  0 
  5  8  1  0  0  0  0 
  6  9  1  0  0  0  0 
  8 10  1  0  0  0  0 
  9 11  2  0  0  0  0 
  9 12  1  0  0  0  0 
 10 13  1  0  0  0  0 
 11 14  1  0  0  0  0 
 15 12  2  0  0  0  0 
 13 16  1  0  0  0  0 
 14 17  2  0  0  0  0 
 17 15  1  0  0  0  0 
 16 18  1  0  0  0  0 
 16 19  1  0  0  0  0 
M  END
> <Name>
Ethanamine, N,N-dimethyl-2-(2-(phenylmethyl)phenoxy)-

> <Source>
DSSTox2DMolFile

> <Tox>
2.261

> <CAS>
92-12-6

$$$$

  CDK

 12 12  0  0  0  0  0  0  0  0999 V2000
   -0.1025    0.9504    0.4841 N   0  0  0  0  0  0  0  0  0  0  0  0
    1.0503    0.1047    0.1922 C   0  0  0  0  0  0  0  0  0  0  0  0
    0.1798    2.4067    0.3539 C   0  0  0  0  0  0  0  0  0  0  0  0
   -1.3832    0.5194   -0.1460 C   0  0  0  0  0  0  0  0  0  0  0  0
    2.1009    0.0904    1.1189 C   0  0  0  0  0  0  0  0  0  0  0  0
    1.1183   -0.7116   -0.9422 C   0  0  0  0  0  0  0  0  0  0  0  0
    0.3859    2.9060   -1.0640 C   0  0  0  0  0  0  0  0  0  0  0  0
   -2.0550   -0.5301    0.7214 C   0  0  0  0  0  0  0  0  0  0  0  0
    3.2017   -0.7294    0.9021 C   0  0  0  0  0  0  0  0  0  0  0  0
    2.2228   -1.5290   -1.1464 C   0  0  0  0  0  0  0  0  0  0  0  0
   -3.5909   -0.9812   -0.0588 Cl  0  0  0  0  0  0  0  0  0  0  0  0
    3.2661   -1.5389   -0.2274 C   0  0  0  0  0  0  0  0  0  0  0  0
  1  2  1  0  0  0  0 
  1  3  1  0  0  0  0 
  1  4  1  0  0  0  0 
  2  5  1  0  0  0  0 
  2  6  2  0  0  0  0 
  3  7  1  0  0  0  0 
  4  8  1  0  0  0  0 
  5  9  2  0  0  0  0 
 10  6  1  0  0  0  0 
  8 11  1  0  0  0  0 
  9 12  1  0  0  0  0 
 12 10  2  0  0  0  0 
M  END
> <Name>
Benzenamine, N-(2-chloroethyl)-N-ethyl-

> <Source>
DougDB3DMolFile

> <Tox>
2.474

> <CAS>
92-49-9

$$$$

  CDK

 12 13  0  0  0  0  0  0  0  0999 V2000
    1.9961   -0.0000    0.0000 C   0  0  0  0  0  0  0  0  0  0  0  0
    2.6615   -1.1511    0.0000 C   0  0  0  0  0  0  0  0  0  0  0  0
    0.6654   -0.0000    0.0000 C   0  0  0  0  0  0  0  0  0  0  0  0
    1.9961   -2.3022    0.0000 C   0  0  0  0  0  0  0  0  0  0  0  0
    3.9922   -1.1511    0.0000 C   0  0  0  0  0  0  0  0  0  0  0  0
    0.0000   -1.1511    0.0000 C   0  0  0  0  0  0  0  0  0  0  0  0
    0.6654   -2.3022    0.0000 C   0  0  0  0  0  0  0  0  0  0  0  0
    4.6575   -0.0000    0.0000 C   0  0  0  0  0  0  0  0  0  0  0  0
    4.6575   -2.3022    0.0000 C   0  0  0  0  0  0  0  0  0  0  0  0
    5.9883   -0.0000    0.0000 C   0  0  0  0  0  0  0  0  0  0  0  0
    5.9883   -2.3022    0.0000 C   0  0  0  0  0  0  0  0  0  0  0  0
    6.6536   -1.1511    0.0000 C   0  0  0  0  0  0  0  0  0  0  0  0
  1  2  2  0  0  0  0 
  1  3  1  0  0  0  0 
  2  4  1  0  0  0  0 
  2  5  1  0  0  0  0 
  6  3  2  0  0  0  0 
  4  7  2  0  0  0  0 
  5  8  2  0  0  0  0 
  5  9  1  0  0  0  0 
  7  6  1  0  0  0  0 
  8 10  1  0  0  0  0 
 11  9  2  0  0  0  0 
 10 12  2  0  0  0  0 
 12 11  1  0  0  0  0 
M  END
> <Name>
1,1'-Biphenyl

> <Source>
DSSTox2DMolFile

> <Tox>
1.858

> <CAS>
92-52-4

$$$$

  CDK

 14 14  0  0  0  0  0  0  0  0999 V2000
    1.8961    0.4990    0.0000 C   0  0  0  0  0  0  0  0  0  0  0  0
    0.9979    0.0000    0.0000 C   0  0  0  0  0  0  0  0  0  0  0  0
    1.8961    1.4969    0.0000 C   0  0  0  0  0  0  0  0  0  0  0  0
    0.1497    0.4990    0.0000 C   0  0  0  0  0  0  0  0  0  0  0  0
    0.9979    1.9959    0.0000 C   0  0  0  0  0  0  0  0  0  0  0  0
    2.5946    2.1955    0.0000 N   0  0  0  0  0  0  0  0  0  0  0  0
    0.1497    1.4969    0.0000 C   0  0  0  0  0  0  0  0  0  0  0  0
    3.4429    1.6965    0.0000 C   0  0  0  0  0  0  0  0  0  0  0  0
    1.8961    2.8940    0.0000 C   0  0  0  0  0  0  0  0  0  0  0  0
    4.3410    2.1955    0.0000 C   0  0  0  0  0  0  0  0  0  0  0  0
    0.8981    2.8940    0.0000 C   0  0  0  0  0  0  0  0  0  0  0  0
    5.1893    1.6965    0.0000 C   0  0  0  0  0  0  0  0  0  0  0  0
    0.0000    3.3930    0.0000 O   0  0  0  0  0  0  0  0  0  0  0  0
    6.0375    1.1975    0.0000 N   0  0  0  0  0  0  0  0  0  0  0  0
  1  2  2  0  0  0  0 
  3  1  1  0  0  0  0 
  2  4  1  0  0  0  0 
  5  3  2  0  0  0  0 
  3  6  1  0  0  0  0 
  4  7  2  0  0  0  0 
  7  5  1  0  0  0  0 
  6  8  1  0  0  0  0 
  6  9  1  0  0  0  0 
 10  8  1  0  0  0  0 
  9 11  1  0  0  0  0 
 12 10  1  0  0  0  0 
 11 13  1  0  0  0  0 
 14 12  3  0  0  0  0 
M  END
> <Name>
Propanenitrile, 3-((2-hydroxyethyl)phenylamino)-

> <Source>
NIST2DMolFile

> <Tox>
1.773

> <CAS>
92-64-8

$$$$

  CDK

 14 16  0  0  0  0  0  0  0  0999 V2000
    0.0000    0.4538    0.0000 C   0  0  0  0  0  0  0  0  0  0  0  0
    0.0000    1.4624    0.0000 C   0  0  0  0  0  0  0  0  0  0  0  0
    0.9077    0.0000    0.0000 C   0  0  0  0  0  0  0  0  0  0  0  0
    0.9077    1.9667    0.0000 C   0  0  0  0  0  0  0  0  0  0  0  0
    1.7649    0.4538    0.0000 C   0  0  0  0  0  0  0  0  0  0  0  0
    1.7649    1.4624    0.0000 C   0  0  0  0  0  0  0  0  0  0  0  0
    2.5718    0.0000    0.0000 N   0  0  0  0  0  0  0  0  0  0  0  0
    2.5718    1.9667    0.0000 C   0  0  0  0  0  0  0  0  0  0  0  0
    3.4795    0.4538    0.0000 C   0  0  0  0  0  0  0  0  0  0  0  0
    3.4795    1.4624    0.0000 C   0  0  0  0  0  0  0  0  0  0  0  0
    4.3367    0.0000    0.0000 C   0  0  0  0  0  0  0  0  0  0  0  0
    4.3367    1.9667    0.0000 C   0  0  0  0  0  0  0  0  0  0  0  0
    5.2444    0.4538    0.0000 C   0  0  0  0  0  0  0  0  0  0  0  0
    5.2444    1.4624    0.0000 C   0  0  0  0  0  0  0  0  0  0  0  0
  1  2  2  0  0  0  0 
  3  1  1  0  0  0  0 
  2  4  1  0  0  0  0 
  5  3  2  0  0  0  0 
  4  6  2  0  0  0  0 
  5  6  1  0  0  0  0 
  7  5  1  0  0  0  0 
  6  8  1  0  0  0  0 
  9  7  1  0  0  0  0 
  8 10  1  0  0  0  0 
  9 10  2  0  0  0  0 
 11  9  1  0  0  0  0 
 10 12  1  0  0  0  0 
 13 11  2  0  0  0  0 
 12 14  2  0  0  0  0 
 14 13  1  0  0  0  0 
M  END
> <Name>
Acridine, 9,10-dihydro- (9CI)

> <Source>
NIST2DMolFile

> <Tox>
1.928

> <CAS>
92-81-9

$$$$

  CDK

 13 13  0  0  0  0  0  0  0  0999 V2000
    1.9945   -0.0000    0.0000 O   0  0  0  0  0  0  0  0  0  0  0  0
    0.6622   -0.0000    0.0000 C   0  0  0  0  0  0  0  0  0  0  0  0
    2.6567   -1.1488    0.0000 C   0  0  0  0  0  0  0  0  0  0  0  0
    3.9890   -1.1488    0.0000 C   0  0  0  0  0  0  0  0  0  0  0  0
    1.9945   -2.3057    0.0000 C   0  0  0  0  0  0  0  0  0  0  0  0
    4.6512   -2.3057    0.0000 C   0  0  0  0  0  0  0  0  0  0  0  0
    2.6567   -3.4545    0.0000 C   0  0  0  0  0  0  0  0  0  0  0  0
    0.6622   -2.3057    0.0000 O   0  0  0  0  0  0  0  0  0  0  0  0
    5.9836   -2.3057    0.0000 C   0  0  0  0  0  0  0  0  0  0  0  0
    3.9890   -3.4545    0.0000 C   0  0  0  0  0  0  0  0  0  0  0  0
    0.0000   -3.4545    0.0000 C   0  0  0  0  0  0  0  0  0  0  0  0
    6.6457   -3.4545    0.0000 C   0  0  0  0  0  0  0  0  0  0  0  0
    7.9781   -3.4545    0.0000 C   0  0  0  0  0  0  0  0  0  0  0  0
  1  2  1  0  0  0  0 
  1  3  1  0  0  0  0 
  3  4  2  0  0  0  0 
  3  5  1  0  0  0  0 
  4  6  1  0  0  0  0 
  7  5  2  0  0  0  0 
  5  8  1  0  0  0  0 
  6  9  1  0  0  0  0 
  6 10  2  0  0  0  0 
 10  7  1  0  0  0  0 
  8 11  1  0  0  0  0 
  9 12  1  0  0  0  0 
 12 13  2  0  0  0  0 
M  END
> <Name>
Benzene, 1,2-dimethoxy-4-(2-propenyl)-

> <Source>
DSSTox2DMolFile

> <Tox>
2.342

> <CAS>
93-15-2

$$$$

  CDK

 15 15  0  0  0  0  0  0  0  0999 V2000
    1.0025    0.8521    0.0000 C   0  0  0  0  0  0  0  0  0  0  0  0
    1.5038    1.7043    0.0000 O   0  0  0  0  0  0  0  0  0  0  0  0
    1.5038    0.0000    0.0000 C   0  0  0  0  0  0  0  0  0  0  0  0
    0.0000    0.8521    0.0000 O   0  0  0  0  0  0  0  0  0  0  0  0
    2.5063    1.7043    0.0000 C   0  0  0  0  0  0  0  0  0  0  0  0
    3.0076    2.6066    0.0000 C   0  0  0  0  0  0  0  0  0  0  0  0
    3.0076    0.8521    0.0000 C   0  0  0  0  0  0  0  0  0  0  0  0
    2.5063    3.4587    0.0000 O   0  0  0  0  0  0  0  0  0  0  0  0
    4.0101    2.6066    0.0000 C   0  0  0  0  0  0  0  0  0  0  0  0
    4.0101    0.8521    0.0000 C   0  0  0  0  0  0  0  0  0  0  0  0
    3.0076    4.3109    0.0000 C   0  0  0  0  0  0  0  0  0  0  0  0
    4.5114    1.7043    0.0000 C   0  0  0  0  0  0  0  0  0  0  0  0
    5.5139    1.7043    0.0000 C   0  0  0  0  0  0  0  0  0  0  0  0
    6.0152    0.8521    0.0000 C   0  0  0  0  0  0  0  0  0  0  0  0
    7.0177    0.8521    0.0000 C   0  0  0  0  0  0  0  0  0  0  0  0
  1  2  1  0  0  0  0 
  1  3  1  0  0  0  0 
  1  4  2  0  0  0  0 
  2  5  1  0  0  0  0 
  6  5  2  0  0  0  0 
  5  7  1  0  0  0  0 
  6  8  1  0  0  0  0 
  9  6  1  0  0  0  0 
  7 10  2  0  0  0  0 
  8 11  1  0  0  0  0 
 12  9  2  0  0  0  0 
 10 12  1  0  0  0  0 
 12 13  1  0  0  0  0 
 13 14  1  0  0  0  0 
 14 15  2  0  0  0  0 
M  END
> <Name>
Phenol, 2-methoxy-4-(2-propenyl)-, acetate

> <Source>
NIST2DMolFile

> <Tox>
2.092

> <CAS>
93-28-7

$$$$

  CDK

 11 10  0  0  0  0  0  0  0  0999 V2000
   -0.6122   -0.6402    0.0546 C   0  0  0  0  0  0  0  0  0  0  0  0
   -1.7448    0.1586   -0.5511 C   0  0  0  0  0  0  0  0  0  0  0  0
   -0.7928   -1.6297    0.7439 O   0  0  0  0  0  0  0  0  0  0  0  0
    0.7352   -0.2596   -0.2758 N   0  0  0  0  0  0  0  0  0  0  0  0
   -3.3117   -0.5031   -0.0701 Cl  0  0  0  0  0  0  0  0  0  0  0  0
    0.9958    1.1590   -0.6416 C   0  0  0  0  0  0  0  0  0  0  0  0
    1.8611   -0.9197    0.4510 C   0  0  0  0  0  0  0  0  0  0  0  0
    0.7721    2.1280    0.4739 C   0  0  0  0  0  0  0  0  0  0  0  0
    3.0522   -1.0552   -0.4397 C   0  0  0  0  0  0  0  0  0  0  0  0
    0.0276    3.2188    0.3358 C   0  0  0  0  0  0  0  0  0  0  0  0
    4.2850   -0.7837   -0.0271 C   0  0  0  0  0  0  0  0  0  0  0  0
  1  2  1  0  0  0  0 
  1  3  2  0  0  0  0 
  1  4  1  0  0  0  0 
  2  5  1  0  0  0  0 
  4  6  1  0  0  0  0 
  4  7  1  0  0  0  0 
  6  8  1  0  0  0  0 
  7  9  1  0  0  0  0 
  8 10  2  0  0  0  0 
  9 11  2  0  0  0  0 
M  END
> <Name>
Acetamide, 2-chloro-N,N-di-2-propenyl-

> <Source>
DougDB3DMolFile

> <Tox>
2.395

> <CAS>
93-71-0

$$$$

  CDK

 14 14  0  0  0  0  0  0  0  0999 V2000
    3.4580   -3.9899    0.0000 Cl  0  0  0  0  0  0  0  0  0  0  0  0
    4.6025   -3.3290    0.0000 C   0  0  0  0  0  0  0  0  0  0  0  0
    4.6025   -1.9990    0.0000 C   0  0  0  0  0  0  0  0  0  0  0  0
    5.7552   -3.9899    0.0000 C   0  0  0  0  0  0  0  0  0  0  0  0
    5.7552   -1.3300    0.0000 C   0  0  0  0  0  0  0  0  0  0  0  0
    3.4580   -1.3300    0.0000 O   0  0  0  0  0  0  0  0  0  0  0  0
    6.9078   -3.3290    0.0000 C   0  0  0  0  0  0  0  0  0  0  0  0
    6.9078   -1.9990    0.0000 C   0  0  0  0  0  0  0  0  0  0  0  0
    2.3053   -1.9990    0.0000 C   0  0  0  0  0  0  0  0  0  0  0  0
    8.0605   -3.9899    0.0000 Cl  0  0  0  0  0  0  0  0  0  0  0  0
    8.0605   -1.3300    0.0000 Cl  0  0  0  0  0  0  0  0  0  0  0  0
    1.1527   -1.3300    0.0000 C   0  0  0  0  0  0  0  0  0  0  0  0
    1.1527   -0.0000    0.0000 O   0  0  0  0  0  0  0  0  0  0  0  0
    0.0000   -1.9990    0.0000 O   0  0  0  0  0  0  0  0  0  0  0  0
  1  2  1  0  0  0  0 
  2  3  2  0  0  0  0 
  2  4  1  0  0  0  0 
  3  5  1  0  0  0  0 
  3  6  1  0  0  0  0 
  7  4  2  0  0  0  0 
  5  8  2  0  0  0  0 
  6  9  1  0  0  0  0 
  8  7  1  0  0  0  0 
  7 10  1  0  0  0  0 
  8 11  1  0  0  0  0 
  9 12  1  0  0  0  0 
 12 13  2  0  0  0  0 
 12 14  1  0  0  0  0 
M  END
> <Name>
Acetic acid, (2,4,5-trichlorophenoxy)-

> <Source>
DSSTox2DMolFile

> <Tox>
2.930

> <CAS>
93-76-5

$$$$

  CDK

 11 11  0  0  0  0  0  0  0  0999 V2000
   -0.7433    0.6990   -0.0003 C   0  0  0  0  0  0  0  0  0  0  0  0
    0.6597    0.2046   -0.0001 C   0  0  0  0  0  0  0  0  0  0  0  0
   -1.1090    1.8608   -0.0009 O   0  0  0  0  0  0  0  0  0  0  0  0
   -1.6902   -0.2836    0.0003 O   0  0  0  0  0  0  0  0  0  0  0  0
    1.6948    1.1450    0.0005 C   0  0  0  0  0  0  0  0  0  0  0  0
    0.9651   -1.1590   -0.0006 C   0  0  0  0  0  0  0  0  0  0  0  0
   -3.0672    0.0999    0.0004 C   0  0  0  0  0  0  0  0  0  0  0  0
    3.0192    0.7230    0.0007 C   0  0  0  0  0  0  0  0  0  0  0  0
    2.2926   -1.5726   -0.0005 C   0  0  0  0  0  0  0  0  0  0  0  0
   -3.8683   -1.1880    0.0003 C   0  0  0  0  0  0  0  0  0  0  0  0
    3.3198   -0.6349    0.0002 C   0  0  0  0  0  0  0  0  0  0  0  0
  1  2  1  0  0  0  0 
  1  3  2  0  0  0  0 
  1  4  1  0  0  0  0 
  2  5  1  0  0  0  0 
  2  6  2  0  0  0  0 
  4  7  1  0  0  0  0 
  5  8  2  0  0  0  0 
  9  6  1  0  0  0  0 
  7 10  1  0  0  0  0 
  8 11  1  0  0  0  0 
 11  9  2  0  0  0  0 
M  END
> <Name>
Benzoic acid, ethyl ester

> <Source>
DougDB3DMolFile

> <Tox>
1.854

> <CAS>
93-89-0

$$$$

  CDK

 16 16  0  0  0  0  0  0  0  0999 V2000
    2.3019   -3.9920    0.0000 Cl  0  0  0  0  0  0  0  0  0  0  0  0
    2.3019   -2.6648    0.0000 C   0  0  0  0  0  0  0  0  0  0  0  0
    1.1510   -2.0012    0.0000 C   0  0  0  0  0  0  0  0  0  0  0  0
    3.4529   -2.0012    0.0000 C   0  0  0  0  0  0  0  0  0  0  0  0
    1.1510   -0.6636    0.0000 C   0  0  0  0  0  0  0  0  0  0  0  0
    3.4529   -0.6636    0.0000 C   0  0  0  0  0  0  0  0  0  0  0  0
    4.6038   -2.6648    0.0000 O   0  0  0  0  0  0  0  0  0  0  0  0
    2.3019   -0.0000    0.0000 C   0  0  0  0  0  0  0  0  0  0  0  0
    0.0000   -0.0000    0.0000 Cl  0  0  0  0  0  0  0  0  0  0  0  0
    5.7651   -2.0012    0.0000 C   0  0  0  0  0  0  0  0  0  0  0  0
    6.9161   -2.6648    0.0000 C   0  0  0  0  0  0  0  0  0  0  0  0
    6.9161   -3.9920    0.0000 O   0  0  0  0  0  0  0  0  0  0  0  0
    8.0670   -2.0012    0.0000 O   0  0  0  0  0  0  0  0  0  0  0  0
    9.2180   -2.6648    0.0000 C   0  0  0  0  0  0  0  0  0  0  0  0
   10.3689   -2.0012    0.0000 C   0  0  0  0  0  0  0  0  0  0  0  0
    9.2180   -3.9920    0.0000 C   0  0  0  0  0  0  0  0  0  0  0  0
  1  2  1  0  0  0  0 
  2  3  2  0  0  0  0 
  2  4  1  0  0  0  0 
  3  5  1  0  0  0  0 
  6  4  2  0  0  0  0 
  4  7  1  0  0  0  0 
  5  8  2  0  0  0  0 
  5  9  1  0  0  0  0 
  8  6  1  0  0  0  0 
  7 10  1  0  0  0  0 
 10 11  1  0  0  0  0 
 11 12  2  0  0  0  0 
 11 13  1  0  0  0  0 
 13 14  1  0  0  0  0 
 14 15  1  0  0  0  0 
 14 16  1  0  0  0  0 
M  END
> <Name>
Acetic acid, (2,4-dichlorophenoxy)-, 1-methylethyl ester (9CI)

> <Source>
DSSTox2DMolFile

> <Tox>
2.575

> <CAS>
94-11-1

$$$$

  CDK

 28 27  0  0  0  0  0  0  0  0999 V2000
    5.7658   -2.6527    0.0000 C   0  0  0  0  0  0  0  0  0  0  0  0
    6.9277   -1.9950    0.0000 C   0  0  0  0  0  0  0  0  0  0  0  0
    4.6039   -1.9950    0.0000 O   0  0  0  0  0  0  0  0  0  0  0  0
    8.0678   -2.6527    0.0000 O   0  0  0  0  0  0  0  0  0  0  0  0
    3.4639   -2.6527    0.0000 C   0  0  0  0  0  0  0  0  0  0  0  0
    9.2297   -1.9950    0.0000 C   0  0  0  0  0  0  0  0  0  0  0  0
    2.3019   -1.9950    0.0000 C   0  0  0  0  0  0  0  0  0  0  0  0
    3.4639   -3.9900    0.0000 O   0  0  0  0  0  0  0  0  0  0  0  0
   10.3697   -2.6527    0.0000 C   0  0  0  0  0  0  0  0  0  0  0  0
    1.1400   -2.6527    0.0000 C   0  0  0  0  0  0  0  0  0  0  0  0
    2.3019   -0.6577    0.0000 C   0  0  0  0  0  0  0  0  0  0  0  0
   11.5316   -1.9950    0.0000 O   0  0  0  0  0  0  0  0  0  0  0  0
    1.1400   -3.9900    0.0000 C   0  0  0  0  0  0  0  0  0  0  0  0
    1.1400   -0.0000    0.0000 C   0  0  0  0  0  0  0  0  0  0  0  0
   12.6936   -2.6527    0.0000 C   0  0  0  0  0  0  0  0  0  0  0  0
    0.0000   -4.6477    0.0000 C   0  0  0  0  0  0  0  0  0  0  0  0
   13.8555   -1.9950    0.0000 C   0  0  0  0  0  0  0  0  0  0  0  0
    0.0000   -5.9850    0.0000 C   0  0  0  0  0  0  0  0  0  0  0  0
   14.9955   -2.6527    0.0000 O   0  0  0  0  0  0  0  0  0  0  0  0
   16.1574   -1.9950    0.0000 C   0  0  0  0  0  0  0  0  0  0  0  0
   17.3194   -2.6527    0.0000 C   0  0  0  0  0  0  0  0  0  0  0  0
   16.1574   -0.6577    0.0000 O   0  0  0  0  0  0  0  0  0  0  0  0
   18.4594   -1.9950    0.0000 C   0  0  0  0  0  0  0  0  0  0  0  0
   17.3194   -3.9900    0.0000 C   0  0  0  0  0  0  0  0  0  0  0  0
   19.6213   -2.6527    0.0000 C   0  0  0  0  0  0  0  0  0  0  0  0
   18.4594   -4.6477    0.0000 C   0  0  0  0  0  0  0  0  0  0  0  0
   20.7613   -1.9950    0.0000 C   0  0  0  0  0  0  0  0  0  0  0  0
   21.9233   -2.6527    0.0000 C   0  0  0  0  0  0  0  0  0  0  0  0
  1  2  1  0  0  0  0 
  1  3  1  0  0  0  0 
  2  4  1  0  0  0  0 
  3  5  1  0  0  0  0 
  4  6  1  0  0  0  0 
  5  7  1  0  0  0  0 
  5  8  2  0  0  0  0 
  6  9  1  0  0  0  0 
  7 10  1  0  0  0  0 
  7 11  1  0  0  0  0 
  9 12  1  0  0  0  0 
 10 13  1  0  0  0  0 
 11 14  1  0  0  0  0 
 12 15  1  0  0  0  0 
 13 16  1  0  0  0  0 
 15 17  1  0  0  0  0 
 16 18  1  0  0  0  0 
 17 19  1  0  0  0  0 
 19 20  1  0  0  0  0 
 20 21  1  0  0  0  0 
 20 22  2  0  0  0  0 
 21 23  1  0  0  0  0 
 21 24  1  0  0  0  0 
 23 25  1  0  0  0  0 
 24 26  1  0  0  0  0 
 25 27  1  0  0  0  0 
 27 28  1  0  0  0  0 
M  END
> <Name>
Hexanoic acid, 2-ethyl-, 1,2-ethanediylbis(oxy-2,1-ethanediyl) ester

> <Source>
DSSTox2DMolFile

> <Tox>
1.113

> <CAS>
94-28-0

$$$$

  CDK

 12 13  0  0  0  0  0  0  0  0999 V2000
    0.0000   -2.6625    0.0000 C   0  0  0  0  0  0  0  0  0  0  0  0
    1.1556   -1.9988    0.0000 C   0  0  0  0  0  0  0  0  0  0  0  0
    2.3033   -2.6625    0.0000 C   0  0  0  0  0  0  0  0  0  0  0  0
    3.4589   -1.9988    0.0000 C   0  0  0  0  0  0  0  0  0  0  0  0
    3.4589   -0.6637    0.0000 C   0  0  0  0  0  0  0  0  0  0  0  0
    4.6067   -2.6625    0.0000 C   0  0  0  0  0  0  0  0  0  0  0  0
    4.6067   -0.0000    0.0000 C   0  0  0  0  0  0  0  0  0  0  0  0
    5.7622   -1.9988    0.0000 C   0  0  0  0  0  0  0  0  0  0  0  0
    5.7622   -0.6637    0.0000 C   0  0  0  0  0  0  0  0  0  0  0  0
    7.0271   -2.4048    0.0000 O   0  0  0  0  0  0  0  0  0  0  0  0
    7.0271   -0.2577    0.0000 O   0  0  0  0  0  0  0  0  0  0  0  0
    7.8079   -1.3351    0.0000 C   0  0  0  0  0  0  0  0  0  0  0  0
  1  2  2  0  0  0  0 
  2  3  1  0  0  0  0 
  3  4  1  0  0  0  0 
  4  5  2  0  0  0  0 
  4  6  1  0  0  0  0 
  5  7  1  0  0  0  0 
  8  6  2  0  0  0  0 
  7  9  2  0  0  0  0 
  9  8  1  0  0  0  0 
  8 10  1  0  0  0  0 
  9 11  1  0  0  0  0 
 10 12  1  0  0  0  0 
 12 11  1  0  0  0  0 
M  END
> <Name>
Benzene, 4-allyl-1,2-(methylenedioxy)-

> <Source>
DSSTox2DMolFile

> <Tox>
1.920

> <CAS>
94-59-7

$$$$

  CDK

 21 23  0  0  0  0  0  0  0  0999 V2000
   10.8609   -5.5935    0.0000 O   0  0  0  0  0  0  0  0  0  0  0  0
   12.0811   -5.0499    0.0000 C   0  0  0  0  0  0  0  0  0  0  0  0
    9.9790   -4.6029    0.0000 C   0  0  0  0  0  0  0  0  0  0  0  0
   11.9361   -3.7330    0.0000 O   0  0  0  0  0  0  0  0  0  0  0  0
   10.6434   -3.4552    0.0000 C   0  0  0  0  0  0  0  0  0  0  0  0
    8.6500   -4.6029    0.0000 C   0  0  0  0  0  0  0  0  0  0  0  0
    9.9790   -2.2954    0.0000 C   0  0  0  0  0  0  0  0  0  0  0  0
    7.9856   -3.4552    0.0000 C   0  0  0  0  0  0  0  0  0  0  0  0
    8.6500   -2.2954    0.0000 C   0  0  0  0  0  0  0  0  0  0  0  0
    6.6446   -3.4552    0.0000 C   0  0  0  0  0  0  0  0  0  0  0  0
    5.9801   -2.2954    0.0000 C   0  0  0  0  0  0  0  0  0  0  0  0
    4.6512   -2.2954    0.0000 C   0  0  0  0  0  0  0  0  0  0  0  0
    3.9867   -1.1477    0.0000 C   0  0  0  0  0  0  0  0  0  0  0  0
    2.6578   -1.1477    0.0000 C   0  0  0  0  0  0  0  0  0  0  0  0
    1.9934   -0.0000    0.0000 O   0  0  0  0  0  0  0  0  0  0  0  0
    1.9934   -2.2954    0.0000 N   0  0  0  0  0  0  0  0  0  0  0  0
    2.6578   -3.4552    0.0000 C   0  0  0  0  0  0  0  0  0  0  0  0
    0.6645   -2.2954    0.0000 C   0  0  0  0  0  0  0  0  0  0  0  0
    1.9934   -4.6029    0.0000 C   0  0  0  0  0  0  0  0  0  0  0  0
    0.0000   -3.4552    0.0000 C   0  0  0  0  0  0  0  0  0  0  0  0
    0.6645   -4.6029    0.0000 C   0  0  0  0  0  0  0  0  0  0  0  0
  1  2  1  0  0  0  0 
  1  3  1  0  0  0  0 
  2  4  1  0  0  0  0 
  5  3  1  0  0  0  0 
  6  3  2  0  0  0  0 
  4  5  1  0  0  0  0 
  5  7  2  0  0  0  0 
  8  6  1  0  0  0  0 
  7  9  1  0  0  0  0 
  9  8  2  0  0  0  0 
  8 10  1  0  0  0  0 
 10 11  2  0  0  0  0 
 11 12  1  0  0  0  0 
 12 13  2  0  0  0  0 
 13 14  1  0  0  0  0 
 14 15  2  0  0  0  0 
 14 16  1  0  0  0  0 
 16 17  1  0  0  0  0 
 16 18  1  0  0  0  0 
 17 19  1  0  0  0  0 
 20 18  1  0  0  0  0 
 19 21  1  0  0  0  0 
 21 20  1  0  0  0  0 
M  END
> <Name>
Piperidine, 1-(5-(1,3-benzodioxol-5-yl)-1-oxo-2,4-pentadienyl)-, (E,E)- (9CI)

> <Source>
DSSTox2DMolFile

> <Tox>
2.744

> <CAS>
94-62-2

$$$$

  CDK

 20 21  0  0  0  0  0  0  0  0999 V2000
    0.0000    0.0000    0.0000 C   0  0  0  0  0  0  0  0  0  0  0  0
    1.1200    0.6000   -0.8400 C   0  0  0  0  0  0  0  0  0  0  0  0
    0.2600   -1.3800    0.2200 O   0  0  0  0  0  0  0  0  0  0  0  0
    2.0600    1.2600    0.0000 O   0  0  0  0  0  0  0  0  0  0  0  0
    1.2200   -1.6000    1.1200 C   0  0  0  0  0  0  0  0  0  0  0  0
    1.6600    2.3600    0.6000 C   0  0  0  0  0  0  0  0  0  0  0  0
    1.7800   -0.7000    1.7000 O   0  0  0  0  0  0  0  0  0  0  0  0
    1.5800   -3.0200    1.3600 C   0  0  0  0  0  0  0  0  0  0  0  0
    2.5000    3.0400    1.5000 C   0  0  0  0  0  0  0  0  0  0  0  0
    0.3800    2.8600    0.3400 C   0  0  0  0  0  0  0  0  0  0  0  0
    0.9000   -4.0400    0.6600 C   0  0  0  0  0  0  0  0  0  0  0  0
    2.5800   -3.3600    2.2800 C   0  0  0  0  0  0  0  0  0  0  0  0
    4.0800    2.4400    1.8400 Cl  0  0  0  0  0  0  0  0  0  0  0  0
    2.0600    4.2200    2.1400 C   0  0  0  0  0  0  0  0  0  0  0  0
   -0.0800    4.0400    0.9800 C   0  0  0  0  0  0  0  0  0  0  0  0
    1.2200   -5.3800    0.8800 C   0  0  0  0  0  0  0  0  0  0  0  0
    2.9000   -4.7000    2.5000 C   0  0  0  0  0  0  0  0  0  0  0  0
    0.7800    4.7200    1.8800 C   0  0  0  0  0  0  0  0  0  0  0  0
    2.2200   -5.7200    1.8000 C   0  0  0  0  0  0  0  0  0  0  0  0
    0.2400    6.1400    2.6400 Cl  0  0  0  0  0  0  0  0  0  0  0  0
  1  2  1  0  0  0  0 
  1  3  1  0  0  0  0 
  2  4  1  0  0  0  0 
  3  5  1  0  0  0  0 
  4  6  1  0  0  0  0 
  5  7  2  0  0  0  0 
  5  8  1  0  0  0  0 
  6  9  2  0  0  0  0 
  6 10  1  0  0  0  0 
  8 11  2  0  0  0  0 
  8 12  1  0  0  0  0 
  9 13  1  0  0  0  0 
  9 14  1  0  0  0  0 
 10 15  2  0  0  0  0 
 11 16  1  0  0  0  0 
 17 12  2  0  0  0  0 
 18 14  2  0  0  0  0 
 15 18  1  0  0  0  0 
 16 19  2  0  0  0  0 
 19 17  1  0  0  0  0 
 18 20  1  0  0  0  0 
M  END
> <Name>
Ethanol, 2-(2,4-dichlorophenoxy)-, benzoate

> <Source>
NIH3DMolFile

> <Tox>
2.263

> <CAS>
94-83-7

$$$$

  CDK

 21 22  0  0  0  0  0  0  0  0999 V2000
    6.8441    1.5487    0.0000 C   0  0  0  0  0  0  0  0  0  0  0  0
    5.9948    1.9983    0.0000 N   0  0  0  0  0  0  0  0  0  0  0  0
    7.7433    2.0482    0.0000 C   0  0  0  0  0  0  0  0  0  0  0  0
    5.1955    1.4987    0.0000 C   0  0  0  0  0  0  0  0  0  0  0  0
    8.6425    1.5487    0.0000 C   0  0  0  0  0  0  0  0  0  0  0  0
    7.7433    2.9974    0.0000 C   0  0  0  0  0  0  0  0  0  0  0  0
    4.2963    1.9983    0.0000 C   0  0  0  0  0  0  0  0  0  0  0  0
    8.6425    0.4996    0.0000 O   0  0  0  0  0  0  0  0  0  0  0  0
    9.4918    2.0482    0.0000 C   0  0  0  0  0  0  0  0  0  0  0  0
    8.6425    3.4970    0.0000 C   0  0  0  0  0  0  0  0  0  0  0  0
    3.3971    1.4987    0.0000 N   0  0  0  0  0  0  0  0  0  0  0  0
    4.2963    2.9974    0.0000 C   0  0  0  0  0  0  0  0  0  0  0  0
    9.4918    3.0474    0.0000 C   0  0  0  0  0  0  0  0  0  0  0  0
    2.5478    1.9983    0.0000 C   0  0  0  0  0  0  0  0  0  0  0  0
    1.6985    1.4987    0.0000 C   0  0  0  0  0  0  0  0  0  0  0  0
    0.8493    1.9483    0.0000 C   0  0  0  0  0  0  0  0  0  0  0  0
    1.6985    0.4996    0.0000 C   0  0  0  0  0  0  0  0  0  0  0  0
    0.8493    3.0973    0.0000 O   0  0  0  0  0  0  0  0  0  0  0  0
    0.0000    1.4487    0.0000 C   0  0  0  0  0  0  0  0  0  0  0  0
    0.8493    0.0000    0.0000 C   0  0  0  0  0  0  0  0  0  0  0  0
    0.0000    0.4496    0.0000 C   0  0  0  0  0  0  0  0  0  0  0  0
  1  2  2  0  0  0  0 
  1  3  1  0  0  0  0 
  2  4  1  0  0  0  0 
  5  3  2  0  0  0  0 
  3  6  1  0  0  0  0 
  4  7  1  0  0  0  0 
  5  8  1  0  0  0  0 
  9  5  1  0  0  0  0 
  6 10  2  0  0  0  0 
  7 11  1  0  0  0  0 
  7 12  1  0  0  0  0 
 13  9  2  0  0  0  0 
 10 13  1  0  0  0  0 
 11 14  2  0  0  0  0 
 14 15  1  0  0  0  0 
 16 15  2  0  0  0  0 
 15 17  1  0  0  0  0 
 16 18  1  0  0  0  0 
 19 16  1  0  0  0  0 
 17 20  2  0  0  0  0 
 21 19  2  0  0  0  0 
 20 21  1  0  0  0  0 
M  END
> <Name>
Phenol, 2,2'-((1-methyl-1,2-ethanediyl)bis(nitrilomethylidyne))bis-

> <Source>
NIST2DMolFile

> <Tox>
1.792

> <CAS>
94-91-7

$$$$

  CDK

 10  9  0  0  0  0  0  0  0  0999 V2000
    0.0000   -1.9895    0.0000 O   0  0  0  0  0  0  0  0  0  0  0  0
    1.1536   -2.6595    0.0000 C   0  0  0  0  0  0  0  0  0  0  0  0
    2.3003   -1.9895    0.0000 C   0  0  0  0  0  0  0  0  0  0  0  0
    3.4540   -2.6595    0.0000 C   0  0  0  0  0  0  0  0  0  0  0  0
    2.3003   -0.6632    0.0000 C   0  0  0  0  0  0  0  0  0  0  0  0
    3.4540   -3.9859    0.0000 O   0  0  0  0  0  0  0  0  0  0  0  0
    4.6076   -1.9895    0.0000 C   0  0  0  0  0  0  0  0  0  0  0  0
    1.1536   -0.0000    0.0000 C   0  0  0  0  0  0  0  0  0  0  0  0
    5.7543   -2.6595    0.0000 C   0  0  0  0  0  0  0  0  0  0  0  0
    6.9079   -1.9895    0.0000 C   0  0  0  0  0  0  0  0  0  0  0  0
  1  2  1  0  0  0  0 
  2  3  1  0  0  0  0 
  3  4  1  0  0  0  0 
  3  5  1  0  0  0  0 
  4  6  1  0  0  0  0 
  4  7  1  0  0  0  0 
  5  8  1  0  0  0  0 
  7  9  1  0  0  0  0 
  9 10  1  0  0  0  0 
M  END
> <Name>
1,3-Hexanediol, 2-ethyl-

> <Source>
DSSTox2DMolFile

> <Tox>
2.019

> <CAS>
94-96-2

$$$$

  CDK

 17 19  0  0  0  0  0  0  0  0999 V2000
    3.5644   -2.4073    0.0000 N   0  0  0  0  0  0  0  0  0  0  0  0
    4.3496   -1.3328    0.0000 C   0  0  0  0  0  0  0  0  0  0  0  0
    2.3039   -1.9940    0.0000 C   0  0  0  0  0  0  0  0  0  0  0  0
    5.6824   -1.3328    0.0000 S   0  0  0  0  0  0  0  0  0  0  0  0
    3.5644   -0.2583    0.0000 S   0  0  0  0  0  0  0  0  0  0  0  0
    2.3039   -0.6716    0.0000 C   0  0  0  0  0  0  0  0  0  0  0  0
    1.1468   -2.6655    0.0000 C   0  0  0  0  0  0  0  0  0  0  0  0
    6.3436   -2.4899    0.0000 N   0  0  0  0  0  0  0  0  0  0  0  0
    1.1468   -0.0000    0.0000 C   0  0  0  0  0  0  0  0  0  0  0  0
    0.0000   -1.9940    0.0000 C   0  0  0  0  0  0  0  0  0  0  0  0
    7.6764   -2.4899    0.0000 C   0  0  0  0  0  0  0  0  0  0  0  0
    0.0000   -0.6716    0.0000 C   0  0  0  0  0  0  0  0  0  0  0  0
    8.3376   -1.3328    0.0000 C   0  0  0  0  0  0  0  0  0  0  0  0
    8.3376   -3.6367    0.0000 C   0  0  0  0  0  0  0  0  0  0  0  0
    9.6704   -1.3328    0.0000 C   0  0  0  0  0  0  0  0  0  0  0  0
    9.6704   -3.6367    0.0000 C   0  0  0  0  0  0  0  0  0  0  0  0
   10.3316   -2.4899    0.0000 C   0  0  0  0  0  0  0  0  0  0  0  0
  1  2  2  0  0  0  0 
  1  3  1  0  0  0  0 
  2  4  1  0  0  0  0 
  2  5  1  0  0  0  0 
  6  3  2  0  0  0  0 
  3  7  1  0  0  0  0 
  4  8  1  0  0  0  0 
  5  6  1  0  0  0  0 
  6  9  1  0  0  0  0 
  7 10  2  0  0  0  0 
  8 11  1  0  0  0  0 
 12  9  2  0  0  0  0 
 10 12  1  0  0  0  0 
 11 13  1  0  0  0  0 
 11 14  1  0  0  0  0 
 13 15  1  0  0  0  0 
 16 14  1  0  0  0  0 
 15 17  1  0  0  0  0 
 17 16  1  0  0  0  0 
M  END
> <Name>
2-Benzothiazolesulfenamide, N-cyclohexyl-

> <Source>
DSSTox2DMolFile

> <Tox>
1.698

> <CAS>
95-33-0

$$$$

  CDK

  9  9  0  0  0  0  0  0  0  0999 V2000
    0.0000   -2.6589    0.0000 N   0  0  0  0  0  0  0  0  0  0  0  0
    1.1520   -1.9953    0.0000 C   0  0  0  0  0  0  0  0  0  0  0  0
    1.1520   -0.6636    0.0000 C   0  0  0  0  0  0  0  0  0  0  0  0
    2.3041   -2.6589    0.0000 C   0  0  0  0  0  0  0  0  0  0  0  0
    2.3041   -0.0000    0.0000 C   0  0  0  0  0  0  0  0  0  0  0  0
    0.0000   -0.0000    0.0000 Cl  0  0  0  0  0  0  0  0  0  0  0  0
    3.4561   -1.9953    0.0000 C   0  0  0  0  0  0  0  0  0  0  0  0
    3.4561   -0.6636    0.0000 C   0  0  0  0  0  0  0  0  0  0  0  0
    4.6082   -2.6589    0.0000 Cl  0  0  0  0  0  0  0  0  0  0  0  0
  1  2  1  0  0  0  0 
  2  3  2  0  0  0  0 
  2  4  1  0  0  0  0 
  3  5  1  0  0  0  0 
  3  6  1  0  0  0  0 
  7  4  2  0  0  0  0 
  5  8  2  0  0  0  0 
  8  7  1  0  0  0  0 
  7  9  1  0  0  0  0 
M  END
> <Name>
Benzenamine, 2,5-dichloro-

> <Source>
DSSTox2DMolFile

> <Tox>
2.005

> <CAS>
95-82-9

$$$$

  CDK

 10 10  0  0  0  0  0  0  0  0999 V2000
    3.4527   -3.3252    0.0000 C   0  0  0  0  0  0  0  0  0  0  0  0
    2.3000   -3.9945    0.0000 C   0  0  0  0  0  0  0  0  0  0  0  0
    3.4527   -1.9866    0.0000 C   0  0  0  0  0  0  0  0  0  0  0  0
    1.1527   -3.3252    0.0000 C   0  0  0  0  0  0  0  0  0  0  0  0
    2.3000   -5.3118    0.0000 Cl  0  0  0  0  0  0  0  0  0  0  0  0
    2.3000   -1.3173    0.0000 C   0  0  0  0  0  0  0  0  0  0  0  0
    4.6054   -1.3173    0.0000 Cl  0  0  0  0  0  0  0  0  0  0  0  0
    1.1527   -1.9866    0.0000 C   0  0  0  0  0  0  0  0  0  0  0  0
    0.0000   -3.9945    0.0000 Cl  0  0  0  0  0  0  0  0  0  0  0  0
    2.3000   -0.0000    0.0000 O   0  0  0  0  0  0  0  0  0  0  0  0
  1  2  2  0  0  0  0 
  1  3  1  0  0  0  0 
  2  4  1  0  0  0  0 
  2  5  1  0  0  0  0 
  3  6  2  0  0  0  0 
  3  7  1  0  0  0  0 
  8  4  2  0  0  0  0 
  4  9  1  0  0  0  0 
  8  6  1  0  0  0  0 
  6 10  1  0  0  0  0 
M  END
> <Name>
Phenol, 2,4,5-trichloro-

> <Source>
DSSTox2DMolFile

> <Tox>
2.382

> <CAS>
95-95-4

$$$$

  CDK

  6  5  0  0  0  0  0  0  0  0999 V2000
    2.6616   -0.0000    0.0000 Cl  0  0  0  0  0  0  0  0  0  0  0  0
    1.9952   -1.1492    0.0000 C   0  0  0  0  0  0  0  0  0  0  0  0
    2.6616   -2.3025    0.0000 C   0  0  0  0  0  0  0  0  0  0  0  0
    0.6664   -1.1492    0.0000 C   0  0  0  0  0  0  0  0  0  0  0  0
    3.9905   -2.3025    0.0000 Cl  0  0  0  0  0  0  0  0  0  0  0  0
    0.0000   -2.3025    0.0000 Cl  0  0  0  0  0  0  0  0  0  0  0  0
  1  2  1  0  0  0  0 
  2  3  1  0  0  0  0 
  2  4  1  0  0  0  0 
  3  5  1  0  0  0  0 
  4  6  1  0  0  0  0 
M  END
> <Name>
Propane, 1,2,3-trichloro-

> <Source>
DSSTox2DMolFile

> <Tox>
2.993

> <CAS>
96-18-4

$$$$

  CDK

  6  6  0  0  0  0  0  0  0  0999 V2000
    0.0000    0.0000    0.0000 S   0  0  0  0  0  0  0  0  0  0  0  0
   -1.6200   -0.4600    0.1600 C   0  0  0  0  0  0  0  0  0  0  0  0
   -2.0200   -1.7800    0.3000 N   0  0  0  0  0  0  0  0  0  0  0  0
   -2.8600    0.6600    0.1200 S   0  0  0  0  0  0  0  0  0  0  0  0
   -3.4800   -1.9200    0.4200 C   0  0  0  0  0  0  0  0  0  0  0  0
   -4.1400   -0.5400    0.3200 C   0  0  0  0  0  0  0  0  0  0  0  0
  1  2  2  0  0  0  0 
  2  3  1  0  0  0  0 
  2  4  1  0  0  0  0 
  3  5  1  0  0  0  0 
  6  4  1  0  0  0  0 
  5  6  1  0  0  0  0 
M  END
> <Name>
2-Thiazolidinethione

> <Source>
NIH3DMolFile

> <Tox>
2.599

> <CAS>
96-53-7

$$$$

  CDK

 17 17  0  0  0  0  0  0  0  0999 V2000
    1.5321   -2.2590    0.0000 O   0  0  0  0  0  0  0  0  0  0  0  0
    1.5321   -1.4340    0.0000 C   0  0  0  0  0  0  0  0  0  0  0  0
    2.2465   -1.0215    0.0000 C   0  0  0  0  0  0  0  0  0  0  0  0
    0.8176   -1.0215    0.0000 C   0  0  0  0  0  0  0  0  0  0  0  0
    2.9610   -1.4340    0.0000 I   0  0  0  0  0  0  0  0  0  0  0  0
    2.2465   -0.1965    0.0000 C   0  0  0  0  0  0  0  0  0  0  0  0
    0.8176   -0.1965    0.0000 C   0  0  0  0  0  0  0  0  0  0  0  0
    0.1031   -1.4340    0.0000 I   0  0  0  0  0  0  0  0  0  0  0  0
    1.5321    0.2160    0.0000 C   0  0  0  0  0  0  0  0  0  0  0  0
    0.1031    0.2160    0.0000 C   0  0  0  0  0  0  0  0  0  0  0  0
    1.5321    1.0410    0.0000 I   0  0  0  0  0  0  0  0  0  0  0  0
   -0.6113    0.6285    0.0000 C   0  0  0  0  0  0  0  0  0  0  0  0
   -1.0238   -0.0860    0.0000 C   0  0  0  0  0  0  0  0  0  0  0  0
   -1.3258    1.0410    0.0000 C   0  0  0  0  0  0  0  0  0  0  0  0
   -1.8488   -0.0860    0.0000 O   0  0  0  0  0  0  0  0  0  0  0  0
   -0.6113   -0.8005    0.0000 O   0  0  0  0  0  0  0  0  0  0  0  0
   -2.0403    1.4535    0.0000 C   0  0  0  0  0  0  0  0  0  0  0  0
  1  2  1  0  0  0  0 
  2  3  1  0  0  0  0 
  2  4  2  0  0  0  0 
  3  5  1  0  0  0  0 
  3  6  2  0  0  0  0 
  7  4  1  0  0  0  0 
  4  8  1  0  0  0  0 
  6  9  1  0  0  0  0 
  9  7  2  0  0  0  0 
  7 10  1  0  0  0  0 
  9 11  1  0  0  0  0 
 10 12  1  0  0  0  0 
 12 13  1  0  0  0  0 
 12 14  1  0  0  0  0 
 13 15  1  0  0  0  0 
 13 16  2  0  0  0  0 
 14 17  1  0  0  0  0 
M  END
> <Name>
Hydrocinnamic acid, alpha-ethyl-3-hydroxy-2,4,6-triiodo-

> <Source>
Smiles

> <Tox>
2.456

> <CAS>
96-84-4

$$$$

  CDK

 19 20  0  0  0  0  0  0  0  0999 V2000
    2.3032   -5.3158    0.0000 O   0  0  0  0  0  0  0  0  0  0  0  0
    2.3032   -3.9891    0.0000 C   0  0  0  0  0  0  0  0  0  0  0  0
    1.1516   -3.3166    0.0000 C   0  0  0  0  0  0  0  0  0  0  0  0
    3.4548   -3.3166    0.0000 C   0  0  0  0  0  0  0  0  0  0  0  0
    1.1516   -1.9900    0.0000 C   0  0  0  0  0  0  0  0  0  0  0  0
    0.0000   -3.9891    0.0000 Cl  0  0  0  0  0  0  0  0  0  0  0  0
    3.4548   -1.9900    0.0000 C   0  0  0  0  0  0  0  0  0  0  0  0
    4.6064   -3.9891    0.0000 S   0  0  0  0  0  0  0  0  0  0  0  0
    2.3032   -1.3266    0.0000 C   0  0  0  0  0  0  0  0  0  0  0  0
    5.7580   -3.3166    0.0000 C   0  0  0  0  0  0  0  0  0  0  0  0
    2.3032   -0.0000    0.0000 Cl  0  0  0  0  0  0  0  0  0  0  0  0
    5.7580   -1.9900    0.0000 C   0  0  0  0  0  0  0  0  0  0  0  0
    6.9096   -3.9891    0.0000 C   0  0  0  0  0  0  0  0  0  0  0  0
    6.9096   -1.3266    0.0000 C   0  0  0  0  0  0  0  0  0  0  0  0
    4.6064   -1.3266    0.0000 O   0  0  0  0  0  0  0  0  0  0  0  0
    8.0611   -3.3166    0.0000 C   0  0  0  0  0  0  0  0  0  0  0  0
    8.0611   -1.9900    0.0000 C   0  0  0  0  0  0  0  0  0  0  0  0
    6.9096   -0.0000    0.0000 Cl  0  0  0  0  0  0  0  0  0  0  0  0
    9.2127   -3.9891    0.0000 Cl  0  0  0  0  0  0  0  0  0  0  0  0
  1  2  1  0  0  0  0 
  2  3  2  0  0  0  0 
  2  4  1  0  0  0  0 
  3  5  1  0  0  0  0 
  3  6  1  0  0  0  0 
  7  4  2  0  0  0  0 
  4  8  1  0  0  0  0 
  5  9  2  0  0  0  0 
  9  7  1  0  0  0  0 
  8 10  1  0  0  0  0 
  9 11  1  0  0  0  0 
 10 12  2  0  0  0  0 
 10 13  1  0  0  0  0 
 12 14  1  0  0  0  0 
 12 15  1  0  0  0  0 
 16 13  2  0  0  0  0 
 14 17  2  0  0  0  0 
 14 18  1  0  0  0  0 
 17 16  1  0  0  0  0 
 16 19  1  0  0  0  0 
M  END
> <Name>
Phenol, 2,2'-thiobis(4,6-dichloro-

> <Source>
DSSTox2DMolFile

> <Tox>
4.706

> <CAS>
97-18-7

$$$$

  CDK

 17 18  0  0  0  0  0  0  0  0999 V2000
    4.6095   -6.6481    0.0000 O   0  0  0  0  0  0  0  0  0  0  0  0
    3.4554   -5.9847    0.0000 C   0  0  0  0  0  0  0  0  0  0  0  0
    2.3013   -6.6481    0.0000 C   0  0  0  0  0  0  0  0  0  0  0  0
    3.4554   -4.6509    0.0000 C   0  0  0  0  0  0  0  0  0  0  0  0
    1.1541   -5.9847    0.0000 C   0  0  0  0  0  0  0  0  0  0  0  0
    2.3013   -3.9875    0.0000 C   0  0  0  0  0  0  0  0  0  0  0  0
    4.6095   -3.9875    0.0000 C   0  0  0  0  0  0  0  0  0  0  0  0
    1.1541   -4.6509    0.0000 C   0  0  0  0  0  0  0  0  0  0  0  0
    4.6095   -2.6606    0.0000 C   0  0  0  0  0  0  0  0  0  0  0  0
    0.0000   -3.9875    0.0000 Cl  0  0  0  0  0  0  0  0  0  0  0  0
    3.4554   -1.9903    0.0000 C   0  0  0  0  0  0  0  0  0  0  0  0
    5.7566   -1.9903    0.0000 C   0  0  0  0  0  0  0  0  0  0  0  0
    3.4554   -0.6634    0.0000 C   0  0  0  0  0  0  0  0  0  0  0  0
    5.7566   -0.6634    0.0000 C   0  0  0  0  0  0  0  0  0  0  0  0
    6.9107   -2.6606    0.0000 O   0  0  0  0  0  0  0  0  0  0  0  0
    2.3013   -0.0000    0.0000 Cl  0  0  0  0  0  0  0  0  0  0  0  0
    4.6095   -0.0000    0.0000 C   0  0  0  0  0  0  0  0  0  0  0  0
  1  2  1  0  0  0  0 
  2  3  2  0  0  0  0 
  2  4  1  0  0  0  0 
  3  5  1  0  0  0  0 
  6  4  2  0  0  0  0 
  4  7  1  0  0  0  0 
  5  8  2  0  0  0  0 
  8  6  1  0  0  0  0 
  7  9  1  0  0  0  0 
  8 10  1  0  0  0  0 
  9 11  2  0  0  0  0 
  9 12  1  0  0  0  0 
 11 13  1  0  0  0  0 
 14 12  2  0  0  0  0 
 12 15  1  0  0  0  0 
 13 16  1  0  0  0  0 
 13 17  2  0  0  0  0 
 17 14  1  0  0  0  0 
M  END
> <Name>
Phenol, 2,2'-methylenebis(4-chloro-

> <Source>
DSSTox2DMolFile

> <Tox>
2.252

> <CAS>
97-23-4

$$$$

  CDK

 12 12  0  0  0  0  0  0  0  0999 V2000
    2.1940    1.5442    0.0000 C   0  0  0  0  0  0  0  0  0  0  0  0
    1.1523    0.4985    0.0000 C   0  0  0  0  0  0  0  0  0  0  0  0
    3.3782    1.2564    0.0000 O   0  0  0  0  0  0  0  0  0  0  0  0
    1.4948   -0.8731    0.0000 C   0  0  0  0  0  0  0  0  0  0  0  0
   -0.1924    0.8677    0.0000 C   0  0  0  0  0  0  0  0  0  0  0  0
    0.4807   -1.8551    0.0000 C   0  0  0  0  0  0  0  0  0  0  0  0
    2.7640   -1.3180    0.0000 O   0  0  0  0  0  0  0  0  0  0  0  0
   -1.1927   -0.1046    0.0000 C   0  0  0  0  0  0  0  0  0  0  0  0
   -0.8431   -1.4703    0.0000 C   0  0  0  0  0  0  0  0  0  0  0  0
   -2.6300    0.2977    0.0000 N   0  0  0  0  0  0  0  0  0  0  0  0
   -3.4920   -0.5584   -0.0001 O   0  0  0  0  0  0  0  0  0  0  0  0
   -2.9163    1.4796    0.0001 O   0  0  0  0  0  0  0  0  0  0  0  0
  1  2  1  0  0  0  0 
  1  3  2  0  0  0  0 
  2  4  1  0  0  0  0 
  2  5  2  0  0  0  0 
  4  6  2  0  0  0  0 
  4  7  1  0  0  0  0 
  8  5  1  0  0  0  0 
  6  9  1  0  0  0  0 
  9  8  2  0  0  0  0 
  8 10  1  0  0  0  0 
 10 11  2  0  0  0  0 
 10 12  1  0  0  0  0 
M  CHG  1  10   1
M  CHG  1  12  -1
M  END
> <Name>
Salicylaldehyde, 5-nitro- (6CI,7CI,8CI)

> <Source>
DougDB3DMolFile

> <Tox>
2.320

> <CAS>
97-51-8

$$$$

  CDK

 12 12  0  0  0  0  0  0  0  0999 V2000
    5.7456   -1.9957    0.0000 C   0  0  0  0  0  0  0  0  0  0  0  0
    5.7456   -0.6679    0.0000 C   0  0  0  0  0  0  0  0  0  0  0  0
    4.5868   -2.6797    0.0000 C   0  0  0  0  0  0  0  0  0  0  0  0
    6.9044   -2.6716    0.0000 O   0  0  0  0  0  0  0  0  0  0  0  0
    4.5868   -0.0080    0.0000 C   0  0  0  0  0  0  0  0  0  0  0  0
    6.8964   -0.0000    0.0000 O   0  0  0  0  0  0  0  0  0  0  0  0
    3.4281   -2.0037    0.0000 C   0  0  0  0  0  0  0  0  0  0  0  0
    8.0471   -2.0279    0.0000 C   0  0  0  0  0  0  0  0  0  0  0  0
    3.4281   -0.6760    0.0000 C   0  0  0  0  0  0  0  0  0  0  0  0
    2.2773   -2.6797    0.0000 C   0  0  0  0  0  0  0  0  0  0  0  0
    1.1266   -2.0037    0.0000 C   0  0  0  0  0  0  0  0  0  0  0  0
    0.0000   -2.6394    0.0000 C   0  0  0  0  0  0  0  0  0  0  0  0
  1  2  1  0  0  0  0 
  1  3  2  0  0  0  0 
  1  4  1  0  0  0  0 
  2  5  2  0  0  0  0 
  2  6  1  0  0  0  0 
  3  7  1  0  0  0  0 
  4  8  1  0  0  0  0 
  5  9  1  0  0  0  0 
 10  7  1  0  0  0  0 
  7  9  2  0  0  0  0 
 10 11  2  0  0  0  0 
 11 12  1  0  0  0  0 
M  END
> <Name>
Phenol, 2-methoxy-4-(1-propenyl)-

> <Source>
DSSTox2DMolFile

> <Tox>
2.022

> <CAS>
97-54-1

$$$$

  CDK

  8  7  0  0  0  0  0  0  0  0999 V2000
    3.4577   -0.0000    0.0000 O   0  0  0  0  0  0  0  0  0  0  0  0
    3.4577   -1.3312    0.0000 C   0  0  0  0  0  0  0  0  0  0  0  0
    2.3051   -1.9939    0.0000 O   0  0  0  0  0  0  0  0  0  0  0  0
    4.6103   -1.9939    0.0000 C   0  0  0  0  0  0  0  0  0  0  0  0
    1.1526   -1.3312    0.0000 C   0  0  0  0  0  0  0  0  0  0  0  0
    5.7628   -1.3312    0.0000 C   0  0  0  0  0  0  0  0  0  0  0  0
    4.6103   -3.3252    0.0000 C   0  0  0  0  0  0  0  0  0  0  0  0
    0.0000   -1.9939    0.0000 C   0  0  0  0  0  0  0  0  0  0  0  0
  1  2  2  0  0  0  0 
  2  3  1  0  0  0  0 
  2  4  1  0  0  0  0 
  3  5  1  0  0  0  0 
  4  6  2  0  0  0  0 
  4  7  1  0  0  0  0 
  5  8  1  0  0  0  0 
M  END
> <Name>
2-Propenoic acid, 2-methyl-, ethyl ester

> <Source>
DSSTox2DMolFile

> <Tox>
0.887

> <CAS>
97-63-2

$$$$

  CDK

 16 15  0  0  0  0  0  0  0  0999 V2000
    1.9952   -4.6036    0.0000 S   0  0  0  0  0  0  0  0  0  0  0  0
    2.6603   -3.4549    0.0000 C   0  0  0  0  0  0  0  0  0  0  0  0
    1.9952   -2.2975    0.0000 N   0  0  0  0  0  0  0  0  0  0  0  0
    3.9904   -3.4549    0.0000 S   0  0  0  0  0  0  0  0  0  0  0  0
    0.6651   -2.2975    0.0000 C   0  0  0  0  0  0  0  0  0  0  0  0
    2.6603   -1.1487    0.0000 C   0  0  0  0  0  0  0  0  0  0  0  0
    4.6468   -4.6036    0.0000 S   0  0  0  0  0  0  0  0  0  0  0  0
    0.0000   -3.4549    0.0000 C   0  0  0  0  0  0  0  0  0  0  0  0
    1.9952   -0.0000    0.0000 C   0  0  0  0  0  0  0  0  0  0  0  0
    5.9769   -4.6036    0.0000 C   0  0  0  0  0  0  0  0  0  0  0  0
    6.6420   -5.7524    0.0000 S   0  0  0  0  0  0  0  0  0  0  0  0
    6.6420   -3.4549    0.0000 N   0  0  0  0  0  0  0  0  0  0  0  0
    5.9769   -2.2975    0.0000 C   0  0  0  0  0  0  0  0  0  0  0  0
    7.9721   -3.4549    0.0000 C   0  0  0  0  0  0  0  0  0  0  0  0
    4.6468   -2.2975    0.0000 C   0  0  0  0  0  0  0  0  0  0  0  0
    8.6372   -2.2975    0.0000 C   0  0  0  0  0  0  0  0  0  0  0  0
  1  2  2  0  0  0  0 
  2  3  1  0  0  0  0 
  2  4  1  0  0  0  0 
  3  5  1  0  0  0  0 
  3  6  1  0  0  0  0 
  4  7  1  0  0  0  0 
  5  8  1  0  0  0  0 
  6  9  1  0  0  0  0 
  7 10  1  0  0  0  0 
 10 11  2  0  0  0  0 
 10 12  1  0  0  0  0 
 12 13  1  0  0  0  0 
 12 14  1  0  0  0  0 
 13 15  1  0  0  0  0 
 14 16  1  0  0  0  0 
M  END
> <Name>
Thioperoxydicarbonic diamide (((H2N)C(S))2S2), tetraethyl-

> <Source>
DSSTox2DMolFile

> <Tox>
2.773

> <CAS>
97-77-8

$$$$

  CDK

 13 15  0  0  0  0  0  0  0  0999 V2000
    5.3305    1.0583   -1.5928 O   0  0  0  0  0  0  0  0  0  0  0  0
    4.1131    1.2624   -0.8695 C   0  0  0  0  0  0  0  0  0  0  0  0
    5.0825    0.1937   -0.4802 C   0  0  0  0  0  0  0  0  0  0  0  0
    2.8758    0.4919   -1.3101 C   0  0  0  0  0  0  0  0  0  0  0  0
    4.3356   -1.1059   -0.7437 C   0  0  0  0  0  0  0  0  0  0  0  0
    3.4693   -0.7713   -1.9695 C   0  0  0  0  0  0  0  0  0  0  0  0
    2.2505   -0.1054   -0.0225 C   0  0  0  0  0  0  0  0  0  0  0  0
    3.2416   -1.2416    0.3438 C   0  0  0  0  0  0  0  0  0  0  0  0
    0.8662   -0.6145   -0.2814 C   0  0  0  0  0  0  0  0  0  0  0  0
    0.3705   -1.1848    0.8535 O   0  0  0  0  0  0  0  0  0  0  0  0
    0.2913   -0.5195   -1.3573 O   0  0  0  0  0  0  0  0  0  0  0  0
   -0.9541   -1.7160    0.7468 C   0  0  0  0  0  0  0  0  0  0  0  0
   -1.3564   -2.3093    2.0802 C   0  0  0  0  0  0  0  0  0  0  0  0
  1  2  1  0  0  0  0 
  1  3  1  0  0  0  0 
  2  4  1  0  0  0  0 
  2  3  1  0  0  0  0 
  3  5  1  0  0  0  0 
  4  6  1  0  0  0  0 
  4  7  1  0  0  0  0 
  5  6  1  0  0  0  0 
  5  8  1  0  0  0  0 
  7  8  1  0  0  0  0 
  7  9  1  0  0  0  0 
 10  9  1  0  0  0  0 
 11  9  2  0  0  0  0 
 10 12  1  0  0  0  0 
 12 13  1  0  0  0  0 
M  END
> <Name>
3-Oxatricyclo(3.2.1.0(sup 2,4))octane-6-carboxylic acid, ethyl ester

> <Source>
Chemidplus3DMolFile

> <Tox>
1.583

> <CAS>
97-81-4

$$$$

  CDK

  7  6  0  0  0  0  0  0  0  0999 V2000
    0.0646    1.0893    0.6522 C   0  0  0  0  0  0  0  0  0  0  0  0
    0.0046   -0.3936    0.2518 C   0  0  0  0  0  0  0  0  0  0  0  0
   -0.0627    1.9061   -0.4892 O   0  0  0  0  0  0  0  0  0  0  0  0
   -1.2601   -0.7517   -0.5286 C   0  0  0  0  0  0  0  0  0  0  0  0
    1.2533   -0.7922   -0.5395 C   0  0  0  0  0  0  0  0  0  0  0  0
   -2.5027   -0.7184    0.3335 C   0  0  0  0  0  0  0  0  0  0  0  0
    2.5046   -0.6817    0.3046 C   0  0  0  0  0  0  0  0  0  0  0  0
  1  2  1  0  0  0  0 
  1  3  1  0  0  0  0 
  2  4  1  0  0  0  0 
  2  5  1  0  0  0  0 
  4  6  1  0  0  0  0 
  5  7  1  0  0  0  0 
M  END
> <Name>
1-Butanol, 2-ethyl-

> <Source>
DougDB3DMolFile

> <Tox>
1.742

> <CAS>
97-95-0

$$$$

  CDK

 10 10  0  0  0  0  0  0  0  0999 V2000
    3.9873   -0.0000    0.0000 Cl  0  0  0  0  0  0  0  0  0  0  0  0
    3.9873   -1.3291    0.0000 C   0  0  0  0  0  0  0  0  0  0  0  0
    2.6582   -1.3291    0.0000 C   0  0  0  0  0  0  0  0  0  0  0  0
    5.3164   -1.3291    0.0000 Cl  0  0  0  0  0  0  0  0  0  0  0  0
    3.9873   -2.6582    0.0000 Cl  0  0  0  0  0  0  0  0  0  0  0  0
    1.9936   -2.4827    0.0000 C   0  0  0  0  0  0  0  0  0  0  0  0
    1.9936   -0.1754    0.0000 C   0  0  0  0  0  0  0  0  0  0  0  0
    0.6645   -2.4827    0.0000 C   0  0  0  0  0  0  0  0  0  0  0  0
    0.6645   -0.1754    0.0000 C   0  0  0  0  0  0  0  0  0  0  0  0
    0.0000   -1.3291    0.0000 C   0  0  0  0  0  0  0  0  0  0  0  0
  1  2  1  0  0  0  0 
  2  3  1  0  0  0  0 
  2  4  1  0  0  0  0 
  2  5  1  0  0  0  0 
  3  6  2  0  0  0  0 
  3  7  1  0  0  0  0 
  6  8  1  0  0  0  0 
  9  7  2  0  0  0  0 
  8 10  2  0  0  0  0 
 10  9  1  0  0  0  0 
M  END
> <Name>
Toluene, alpha,alpha,alpha-trichloro-

> <Source>
DSSTox2DMolFile

> <Tox>
1.513

> <CAS>
98-07-7

$$$$

  CDK

 10 10  0  0  0  0  0  0  0  0999 V2000
    3.9873   -0.0000    0.0000 F   0  0  0  0  0  0  0  0  0  0  0  0
    3.9873   -1.3291    0.0000 C   0  0  0  0  0  0  0  0  0  0  0  0
    5.3164   -1.3291    0.0000 F   0  0  0  0  0  0  0  0  0  0  0  0
    3.9873   -2.6582    0.0000 F   0  0  0  0  0  0  0  0  0  0  0  0
    2.6582   -1.3291    0.0000 C   0  0  0  0  0  0  0  0  0  0  0  0
    1.9936   -2.4827    0.0000 C   0  0  0  0  0  0  0  0  0  0  0  0
    1.9936   -0.1754    0.0000 C   0  0  0  0  0  0  0  0  0  0  0  0
    0.6645   -2.4827    0.0000 C   0  0  0  0  0  0  0  0  0  0  0  0
    0.6645   -0.1754    0.0000 C   0  0  0  0  0  0  0  0  0  0  0  0
    0.0000   -1.3291    0.0000 C   0  0  0  0  0  0  0  0  0  0  0  0
  1  2  1  0  0  0  0 
  2  3  1  0  0  0  0 
  2  4  1  0  0  0  0 
  2  5  1  0  0  0  0 
  5  6  2  0  0  0  0 
  5  7  1  0  0  0  0 
  6  8  1  0  0  0  0 
  9  7  2  0  0  0  0 
  8 10  2  0  0  0  0 
 10  9  1  0  0  0  0 
M  END
> <Name>
Toluene, alpha,alpha,alpha-trifluoro-

> <Source>
DSSTox2DMolFile

> <Tox>
0.989

> <CAS>
98-08-8

$$$$

  CDK

 11 11  0  0  0  0  0  0  0  0999 V2000
    0.4897   -1.5095    0.0000 F   0  0  0  0  0  0  0  0  0  0  0  0
    1.1523   -2.6617    0.0000 C   0  0  0  0  0  0  0  0  0  0  0  0
    1.8148   -3.8140    0.0000 F   0  0  0  0  0  0  0  0  0  0  0  0
    0.0000   -3.3243    0.0000 F   0  0  0  0  0  0  0  0  0  0  0  0
    2.3045   -1.9992    0.0000 C   0  0  0  0  0  0  0  0  0  0  0  0
    2.3045   -0.6683    0.0000 C   0  0  0  0  0  0  0  0  0  0  0  0
    3.4568   -2.6617    0.0000 C   0  0  0  0  0  0  0  0  0  0  0  0
    3.4568   -0.0000    0.0000 C   0  0  0  0  0  0  0  0  0  0  0  0
    4.6091   -1.9992    0.0000 C   0  0  0  0  0  0  0  0  0  0  0  0
    4.6091   -0.6683    0.0000 C   0  0  0  0  0  0  0  0  0  0  0  0
    5.7613   -2.6617    0.0000 N   0  0  0  0  0  0  0  0  0  0  0  0
  1  2  1  0  0  0  0 
  2  3  1  0  0  0  0 
  2  4  1  0  0  0  0 
  2  5  1  0  0  0  0 
  5  6  2  0  0  0  0 
  5  7  1  0  0  0  0 
  6  8  1  0  0  0  0 
  9  7  2  0  0  0  0 
  8 10  2  0  0  0  0 
 10  9  1  0  0  0  0 
  9 11  1  0  0  0  0 
M  END
> <Name>
m-Toluidine, alpha,alpha,alpha-trifluoro-

> <Source>
DSSTox2DMolFile

> <Tox>
2.526

> <CAS>
98-16-8

$$$$

  CDK

 11 11  0  0  0  0  0  0  0  0999 V2000
    3.9913   -1.3304    0.0000 C   0  0  0  0  0  0  0  0  0  0  0  0
    3.3327   -2.4812    0.0000 C   0  0  0  0  0  0  0  0  0  0  0  0
    3.3327   -0.1796    0.0000 C   0  0  0  0  0  0  0  0  0  0  0  0
    5.3217   -1.3304    0.0000 C   0  0  0  0  0  0  0  0  0  0  0  0
    2.0023   -2.4812    0.0000 C   0  0  0  0  0  0  0  0  0  0  0  0
    2.0023   -0.1796    0.0000 C   0  0  0  0  0  0  0  0  0  0  0  0
    5.3217   -0.0000    0.0000 C   0  0  0  0  0  0  0  0  0  0  0  0
    5.3217   -2.6609    0.0000 C   0  0  0  0  0  0  0  0  0  0  0  0
    6.6521   -1.3304    0.0000 O   0  0  0  0  0  0  0  0  0  0  0  0
    1.3304   -1.3304    0.0000 C   0  0  0  0  0  0  0  0  0  0  0  0
    0.0000   -1.3304    0.0000 C   0  0  0  0  0  0  0  0  0  0  0  0
  1  2  1  0  0  0  0 
  1  3  1  0  0  0  0 
  1  4  1  0  0  0  0 
  2  5  1  0  0  0  0 
  6  3  1  0  0  0  0 
  4  7  1  0  0  0  0 
  4  8  1  0  0  0  0 
  4  9  1  0  0  0  0 
  5 10  2  0  0  0  0 
 10  6  1  0  0  0  0 
 10 11  1  0  0  0  0 
M  END
> <Name>
(1)-alpha,alpha,4-Trimethylcyclohex-3-ene-1-methanol

> <Source>
DSSTox2DMolFile

> <Tox>
1.475

> <CAS>
98-55-5

$$$$

  CDK

 11 11  0  0  0  0  0  0  0  0999 V2000
    2.5049    1.8403    0.0000 C   0  0  0  0  0  0  0  0  0  0  0  0
    1.9937    0.9713    0.0000 C   0  0  0  0  0  0  0  0  0  0  0  0
    3.5272    1.8403    0.0000 C   0  0  0  0  0  0  0  0  0  0  0  0
    2.5049    0.1534    0.0000 C   0  0  0  0  0  0  0  0  0  0  0  0
    1.0224    0.9713    0.0000 S   0  0  0  0  0  0  0  0  0  0  0  0
    4.0384    0.9713    0.0000 C   0  0  0  0  0  0  0  0  0  0  0  0
    3.5272    0.1534    0.0000 C   0  0  0  0  0  0  0  0  0  0  0  0
    1.0224    0.0000    0.0000 O   0  0  0  0  0  0  0  0  0  0  0  0
    1.0224    1.9937    0.0000 O   0  0  0  0  0  0  0  0  0  0  0  0
    0.0000    0.9713    0.0000 Cl  0  0  0  0  0  0  0  0  0  0  0  0
    5.0608    0.9713    0.0000 Cl  0  0  0  0  0  0  0  0  0  0  0  0
  1  2  2  0  0  0  0 
  3  1  1  0  0  0  0 
  2  4  1  0  0  0  0 
  2  5  1  0  0  0  0 
  6  3  2  0  0  0  0 
  4  7  2  0  0  0  0 
  5  8  2  0  0  0  0 
  5  9  2  0  0  0  0 
  5 10  1  0  0  0  0 
  6 11  1  0  0  0  0 
  7  6  1  0  0  0  0 
M  END
> <Name>
Benzenesulfonyl chloride, 4-chloro-

> <Source>
NIST2DMolFile

> <Tox>
1.696

> <CAS>
98-60-2

$$$$

  CDK

  9  9  0  0  0  0  0  0  0  0999 V2000
    2.6574   -0.0000    0.0000 C   0  0  0  0  0  0  0  0  0  0  0  0
    3.9884   -0.0000    0.0000 C   0  0  0  0  0  0  0  0  0  0  0  0
    1.9965   -1.1542    0.0000 C   0  0  0  0  0  0  0  0  0  0  0  0
    4.6539   -1.1542    0.0000 C   0  0  0  0  0  0  0  0  0  0  0  0
    2.6574   -2.3037    0.0000 C   0  0  0  0  0  0  0  0  0  0  0  0
    0.6655   -1.1542    0.0000 C   0  0  0  0  0  0  0  0  0  0  0  0
    3.9884   -2.3037    0.0000 C   0  0  0  0  0  0  0  0  0  0  0  0
    0.0000   -2.3037    0.0000 C   0  0  0  0  0  0  0  0  0  0  0  0
    0.0000   -0.0000    0.0000 C   0  0  0  0  0  0  0  0  0  0  0  0
  1  2  2  0  0  0  0 
  1  3  1  0  0  0  0 
  2  4  1  0  0  0  0 
  5  3  2  0  0  0  0 
  3  6  1  0  0  0  0 
  4  7  2  0  0  0  0 
  7  5  1  0  0  0  0 
  6  8  1  0  0  0  0 
  6  9  1  0  0  0  0 
M  END
> <Name>
Benzene, (1-methylethyl)-

> <Source>
DSSTox2DMolFile

> <Tox>
1.934

> <CAS>
98-82-8

$$$$

  CDK

  9  9  0  0  0  0  0  0  0  0999 V2000
    4.6727   -0.0000    0.0000 Cl  0  0  0  0  0  0  0  0  0  0  0  0
    3.9998   -1.1401    0.0000 C   0  0  0  0  0  0  0  0  0  0  0  0
    4.6727   -2.2943    0.0000 O   0  0  0  0  0  0  0  0  0  0  0  0
    2.6634   -1.1401    0.0000 C   0  0  0  0  0  0  0  0  0  0  0  0
    2.0093   -2.2943    0.0000 C   0  0  0  0  0  0  0  0  0  0  0  0
    2.0093   -0.0000    0.0000 C   0  0  0  0  0  0  0  0  0  0  0  0
    0.6729   -2.2943    0.0000 C   0  0  0  0  0  0  0  0  0  0  0  0
    0.6729   -0.0000    0.0000 C   0  0  0  0  0  0  0  0  0  0  0  0
    0.0000   -1.1401    0.0000 C   0  0  0  0  0  0  0  0  0  0  0  0
  1  2  1  0  0  0  0 
  2  3  2  0  0  0  0 
  2  4  1  0  0  0  0 
  4  5  2  0  0  0  0 
  4  6  1  0  0  0  0 
  5  7  1  0  0  0  0 
  6  8  2  0  0  0  0 
  7  9  2  0  0  0  0 
  8  9  1  0  0  0  0 
M  END
> <Name>
Benzoyl chloride

> <Source>
DSSTox2DMolFile

> <Tox>
1.869

> <CAS>
98-88-4

$$$$

  CDK

  9  9  0  0  0  0  0  0  0  0999 V2000
    0.0000   -2.3037    0.0000 N   0  0  0  0  0  0  0  0  0  0  0  0
    0.6655   -1.1542    0.0000 C   0  0  0  0  0  0  0  0  0  0  0  0
    0.0000   -0.0000    0.0000 O   0  0  0  0  0  0  0  0  0  0  0  0
    1.9965   -1.1542    0.0000 C   0  0  0  0  0  0  0  0  0  0  0  0
    2.6574   -0.0000    0.0000 C   0  0  0  0  0  0  0  0  0  0  0  0
    2.6574   -2.3037    0.0000 C   0  0  0  0  0  0  0  0  0  0  0  0
    3.9884   -0.0000    0.0000 C   0  0  0  0  0  0  0  0  0  0  0  0
    3.9884   -2.3037    0.0000 N   0  0  0  0  0  0  0  0  0  0  0  0
    4.6539   -1.1542    0.0000 C   0  0  0  0  0  0  0  0  0  0  0  0
  1  2  1  0  0  0  0 
  2  3  2  0  0  0  0 
  2  4  1  0  0  0  0 
  4  5  2  0  0  0  0 
  4  6  1  0  0  0  0 
  5  7  1  0  0  0  0 
  8  6  2  0  0  0  0 
  7  9  2  0  0  0  0 
  9  8  1  0  0  0  0 
M  END
> <Name>
3-Pyridinecarboxamide

> <Source>
DSSTox2DMolFile

> <Tox>
1.543

> <CAS>
98-92-0

$$$$

  CDK

 12 12  0  0  0  0  0  0  0  0999 V2000
    5.9827   -1.1547    0.0000 O   0  0  0  0  0  0  0  0  0  0  0  0
    5.3186   -2.3033    0.0000 N   0  0  0  0  0  0  0  0  0  0  0  0
    3.9905   -2.3033    0.0000 C   0  0  0  0  0  0  0  0  0  0  0  0
    5.9827   -3.4580    0.0000 O   0  0  0  0  0  0  0  0  0  0  0  0
    3.3264   -3.4580    0.0000 C   0  0  0  0  0  0  0  0  0  0  0  0
    3.3264   -1.1547    0.0000 C   0  0  0  0  0  0  0  0  0  0  0  0
    1.9922   -3.4580    0.0000 C   0  0  0  0  0  0  0  0  0  0  0  0
    1.9922   -1.1547    0.0000 C   0  0  0  0  0  0  0  0  0  0  0  0
    1.3282   -2.3033    0.0000 C   0  0  0  0  0  0  0  0  0  0  0  0
    1.3282   -4.6067    0.0000 Cl  0  0  0  0  0  0  0  0  0  0  0  0
    1.3282   -0.0000    0.0000 Cl  0  0  0  0  0  0  0  0  0  0  0  0
    0.0000   -2.3033    0.0000 N   0  0  0  0  0  0  0  0  0  0  0  0
  1  2  2  0  0  0  0 
  2  3  1  0  0  0  0 
  2  4  1  0  0  0  0 
  3  5  2  0  0  0  0 
  3  6  1  0  0  0  0 
  5  7  1  0  0  0  0 
  8  6  2  0  0  0  0 
  7  9  2  0  0  0  0 
  7 10  1  0  0  0  0 
  9  8  1  0  0  0  0 
  8 11  1  0  0  0  0 
  9 12  1  0  0  0  0 
M  CHG  1   2   1
M  CHG  1   4  -1
M  END
> <Name>
Benzenamine, 2,6-dichloro-4-nitro-

> <Source>
DSSTox2DMolFile

> <Tox>
1.936

> <CAS>
99-30-9

$$$$

  CDK

 12 12  0  0  0  0  0  0  0  0999 V2000
    3.9905   -2.3033    0.0000 C   0  0  0  0  0  0  0  0  0  0  0  0
    4.6546   -3.4580    0.0000 C   0  0  0  0  0  0  0  0  0  0  0  0
    2.6563   -2.3033    0.0000 C   0  0  0  0  0  0  0  0  0  0  0  0
    4.6546   -1.1547    0.0000 N   0  0  0  0  0  0  0  0  0  0  0  0
    3.9905   -4.6067    0.0000 C   0  0  0  0  0  0  0  0  0  0  0  0
    1.9922   -3.4580    0.0000 C   0  0  0  0  0  0  0  0  0  0  0  0
    3.9905   -0.0000    0.0000 O   0  0  0  0  0  0  0  0  0  0  0  0
    5.9827   -1.1547    0.0000 O   0  0  0  0  0  0  0  0  0  0  0  0
    2.6563   -4.6067    0.0000 C   0  0  0  0  0  0  0  0  0  0  0  0
    0.6641   -3.4580    0.0000 N   0  0  0  0  0  0  0  0  0  0  0  0
    0.0000   -4.6067    0.0000 O   0  0  0  0  0  0  0  0  0  0  0  0
    0.0000   -2.3033    0.0000 O   0  0  0  0  0  0  0  0  0  0  0  0
  1  2  2  0  0  0  0 
  1  3  1  0  0  0  0 
  1  4  1  0  0  0  0 
  2  5  1  0  0  0  0 
  6  3  2  0  0  0  0 
  4  7  1  0  0  0  0 
  4  8  2  0  0  0  0 
  5  9  2  0  0  0  0 
  9  6  1  0  0  0  0 
  6 10  1  0  0  0  0 
 10 11  1  0  0  0  0 
 10 12  2  0  0  0  0 
M  CHG  1   4   1
M  CHG  1   7  -1
M  CHG  1  10   1
M  CHG  1  11  -1
M  END
> <Name>
Benzene, 1,3-dinitro-

> <Source>
DSSTox2DMolFile

> <Tox>
3.451

> <CAS>
99-65-0

$$$$

  CDK

 11 11  0  0  0  0  0  0  0  0999 V2000
    5.9835   -3.4525    0.0000 O   0  0  0  0  0  0  0  0  0  0  0  0
    5.3194   -2.3037    0.0000 C   0  0  0  0  0  0  0  0  0  0  0  0
    5.9835   -1.1488    0.0000 O   0  0  0  0  0  0  0  0  0  0  0  0
    3.9910   -2.3037    0.0000 C   0  0  0  0  0  0  0  0  0  0  0  0
    5.3194   -0.0000    0.0000 C   0  0  0  0  0  0  0  0  0  0  0  0
    3.3269   -3.4525    0.0000 C   0  0  0  0  0  0  0  0  0  0  0  0
    3.3269   -1.1488    0.0000 C   0  0  0  0  0  0  0  0  0  0  0  0
    1.9925   -3.4525    0.0000 C   0  0  0  0  0  0  0  0  0  0  0  0
    1.9925   -1.1488    0.0000 C   0  0  0  0  0  0  0  0  0  0  0  0
    1.3283   -2.3037    0.0000 C   0  0  0  0  0  0  0  0  0  0  0  0
    0.0000   -2.3037    0.0000 C   0  0  0  0  0  0  0  0  0  0  0  0
  1  2  2  0  0  0  0 
  2  3  1  0  0  0  0 
  2  4  1  0  0  0  0 
  3  5  1  0  0  0  0 
  4  6  2  0  0  0  0 
  4  7  1  0  0  0  0 
  6  8  1  0  0  0  0 
  9  7  2  0  0  0  0 
  8 10  2  0  0  0  0 
 10  9  1  0  0  0  0 
 10 11  1  0  0  0  0 
M  END
> <Name>
Benzoic acid, 4-methyl-, methyl ester

> <Source>
DSSTox2DMolFile

> <Tox>
1.658

> <CAS>
99-75-2

$$$$

  CDK

 10 10  0  0  0  0  0  0  0  0999 V2000
    2.1485   -0.0014    0.0153 C   0  0  0  0  0  0  0  0  0  0  0  0
    1.5661   -1.2021    0.1778 C   0  0  0  0  0  0  0  0  0  0  0  0
    1.3331    1.2499    0.0018 C   0  0  0  0  0  0  0  0  0  0  0  0
    3.6169    0.1606   -0.1158 C   0  0  0  0  0  0  0  0  0  0  0  0
    0.1276   -1.3159    0.3158 C   0  0  0  0  0  0  0  0  0  0  0  0
   -0.1057    1.0225   -0.4376 C   0  0  0  0  0  0  0  0  0  0  0  0
   -0.6751   -0.2724    0.0435 C   0  0  0  0  0  0  0  0  0  0  0  0
   -2.1693   -0.3738    0.1741 C   0  0  0  0  0  0  0  0  0  0  0  0
   -2.6976    0.7161    1.0956 C   0  0  0  0  0  0  0  0  0  0  0  0
   -2.8279   -0.2901   -1.1956 C   0  0  0  0  0  0  0  0  0  0  0  0
  1  2  2  0  0  0  0 
  1  3  1  0  0  0  0 
  1  4  1  0  0  0  0 
  2  5  1  0  0  0  0 
  6  3  1  0  0  0  0 
  5  7  2  0  0  0  0 
  7  6  1  0  0  0  0 
  7  8  1  0  0  0  0 
  8  9  1  0  0  0  0 
  8 10  1  0  0  0  0 
M  END
> <Name>
1,3-Cyclohexadiene, 1-methyl-4-(1-methylethyl)-

> <Source>
DougDB3DMolFile

> <Tox>
1.909

> <CAS>
99-86-5

$$$$

  CDK

 10 10  0  0  0  0  0  0  0  0999 V2000
    0.0000   -2.3031    0.0000 O   0  0  0  0  0  0  0  0  0  0  0  0
    0.6640   -1.1546    0.0000 N   0  0  0  0  0  0  0  0  0  0  0  0
    1.9921   -1.1546    0.0000 C   0  0  0  0  0  0  0  0  0  0  0  0
    0.0000   -0.0000    0.0000 O   0  0  0  0  0  0  0  0  0  0  0  0
    2.6561   -0.0000    0.0000 C   0  0  0  0  0  0  0  0  0  0  0  0
    2.6561   -2.3031    0.0000 C   0  0  0  0  0  0  0  0  0  0  0  0
    3.9901   -0.0000    0.0000 C   0  0  0  0  0  0  0  0  0  0  0  0
    3.9901   -2.3031    0.0000 C   0  0  0  0  0  0  0  0  0  0  0  0
    4.6542   -1.1546    0.0000 C   0  0  0  0  0  0  0  0  0  0  0  0
    5.9822   -1.1546    0.0000 Cl  0  0  0  0  0  0  0  0  0  0  0  0
  1  2  2  0  0  0  0 
  2  3  1  0  0  0  0 
  2  4  1  0  0  0  0 
  3  5  2  0  0  0  0 
  3  6  1  0  0  0  0 
  5  7  1  0  0  0  0 
  8  6  2  0  0  0  0 
  7  9  2  0  0  0  0 
  9  8  1  0  0  0  0 
  9 10  1  0  0  0  0 
M  CHG  1   2   1
M  CHG  1   4  -1
M  END
> <Name>
Benzene, 1-chloro-4-nitro-

> <Source>
DSSTox2DMolFile

> <Tox>
2.574

> <CAS>
100-00-5

$$$$

  CDK

 11 11  0  0  0  0  0  0  0  0999 V2000
   -2.5667   -0.1929   -0.0002 C   0  0  0  0  0  0  0  0  0  0  0  0
   -3.4231    1.0472    0.0024 C   0  0  0  0  0  0  0  0  0  0  0  0
   -3.0810   -1.2989   -0.0024 O   0  0  0  0  0  0  0  0  0  0  0  0
   -1.0852   -0.0255   -0.0001 C   0  0  0  0  0  0  0  0  0  0  0  0
   -0.4904    1.2418   -0.0017 C   0  0  0  0  0  0  0  0  0  0  0  0
   -0.2653   -1.1568    0.0014 C   0  0  0  0  0  0  0  0  0  0  0  0
    0.8871    1.3822   -0.0014 C   0  0  0  0  0  0  0  0  0  0  0  0
    1.1195   -1.0387    0.0016 C   0  0  0  0  0  0  0  0  0  0  0  0
    1.6978    0.2343    0.0004 C   0  0  0  0  0  0  0  0  0  0  0  0
    3.0489    0.5006    0.0012 O   0  0  0  0  0  0  0  0  0  0  0  0
    3.9294   -0.5969   -0.0011 C   0  0  0  0  0  0  0  0  0  0  0  0
  1  2  1  0  0  0  0 
  1  3  2  0  0  0  0 
  1  4  1  0  0  0  0 
  4  5  1  0  0  0  0 
  4  6  2  0  0  0  0 
  5  7  2  0  0  0  0 
  8  6  1  0  0  0  0 
  7  9  1  0  0  0  0 
  9  8  2  0  0  0  0 
  9 10  1  0  0  0  0 
 10 11  1  0  0  0  0 
M  END
> <Name>
Ethanone, 1-(4-methoxyphenyl)-

> <Source>
DougDB3DMolFile

> <Tox>
1.941

> <CAS>
100-06-1

$$$$

  CDK

  8  7  0  0  0  0  0  0  0  0999 V2000
    0.8772    0.4544    0.4813 C   0  0  0  0  0  0  0  0  0  0  0  0
    2.0220    0.2573   -0.5202 C   0  0  0  0  0  0  0  0  0  0  0  0
   -0.4391    0.2767   -0.1971 N   0  0  0  0  0  0  0  0  0  0  0  0
    3.3629    0.2688    0.0884 N   0  0  0  0  0  0  0  0  0  0  0  0
   -1.5607    0.8871    0.5741 C   0  0  0  0  0  0  0  0  0  0  0  0
   -0.6798   -1.1184   -0.6528 C   0  0  0  0  0  0  0  0  0  0  0  0
   -2.7597    1.1681   -0.3106 C   0  0  0  0  0  0  0  0  0  0  0  0
   -0.9732   -2.1444    0.4258 C   0  0  0  0  0  0  0  0  0  0  0  0
  1  2  1  0  0  0  0 
  1  3  1  0  0  0  0 
  2  4  1  0  0  0  0 
  3  5  1  0  0  0  0 
  3  6  1  0  0  0  0 
  5  7  1  0  0  0  0 
  6  8  1  0  0  0  0 
M  END
> <Name>
1,2-Ethanediamine, N,N-diethyl-

> <Source>
DougDB3DMolFile

> <Tox>
1.613

> <CAS>
100-36-7

$$$$

  CDK

  8  8  0  0  0  0  0  0  0  0999 V2000
    1.5608    1.7119    0.0000 C   0  0  0  0  0  0  0  0  0  0  0  0
    0.5035    1.7119    0.0000 C   0  0  0  0  0  0  0  0  0  0  0  0
    2.0643    0.8559    0.0000 C   0  0  0  0  0  0  0  0  0  0  0  0
    0.0000    0.8559    0.0000 C   0  0  0  0  0  0  0  0  0  0  0  0
    1.5608    0.0000    0.0000 C   0  0  0  0  0  0  0  0  0  0  0  0
    3.0209    0.8559    0.0000 C   0  0  0  0  0  0  0  0  0  0  0  0
    0.5035    0.0000    0.0000 C   0  0  0  0  0  0  0  0  0  0  0  0
    3.9775    0.8559    0.0000 N   0  0  0  0  0  0  0  0  0  0  0  0
  1  2  1  0  0  0  0 
  3  1  1  0  0  0  0 
  2  4  1  0  0  0  0 
  5  3  1  0  0  0  0 
  3  6  1  0  0  0  0 
  4  7  2  0  0  0  0 
  7  5  1  0  0  0  0 
  6  8  3  0  0  0  0 
M  END
> <Name>
3-Cyclohexene-1-carbonitrile

> <Source>
NIST2DMolFile

> <Tox>
2.367

> <CAS>
100-45-8

$$$$

  CDK

  8  8  0  0  0  0  0  0  0  0999 V2000
    0.0000   -0.0000    0.0000 O   0  0  0  0  0  0  0  0  0  0  0  0
    0.6654   -1.1540    0.0000 C   0  0  0  0  0  0  0  0  0  0  0  0
    1.9962   -1.1540    0.0000 C   0  0  0  0  0  0  0  0  0  0  0  0
    2.6569   -0.0000    0.0000 C   0  0  0  0  0  0  0  0  0  0  0  0
    2.6569   -2.3033    0.0000 C   0  0  0  0  0  0  0  0  0  0  0  0
    3.9877   -0.0000    0.0000 C   0  0  0  0  0  0  0  0  0  0  0  0
    3.9877   -2.3033    0.0000 C   0  0  0  0  0  0  0  0  0  0  0  0
    4.6531   -1.1540    0.0000 C   0  0  0  0  0  0  0  0  0  0  0  0
  1  2  2  0  0  0  0 
  2  3  1  0  0  0  0 
  3  4  2  0  0  0  0 
  3  5  1  0  0  0  0 
  4  6  1  0  0  0  0 
  7  5  2  0  0  0  0 
  6  8  2  0  0  0  0 
  8  7  1  0  0  0  0 
M  END
> <Name>
Benzaldehyde

> <Source>
DSSTox2DMolFile

> <Tox>
1.912

> <CAS>
100-52-7

$$$$

  CDK

  8  8  0  0  0  0  0  0  0  0999 V2000
    0.6574   -2.3137    0.0000 N   0  0  0  0  0  0  0  0  0  0  0  0
    0.0000   -1.1569    0.0000 C   0  0  0  0  0  0  0  0  0  0  0  0
    1.9927   -2.3137    0.0000 C   0  0  0  0  0  0  0  0  0  0  0  0
    0.6574   -0.0000    0.0000 C   0  0  0  0  0  0  0  0  0  0  0  0
    2.6705   -1.1569    0.0000 C   0  0  0  0  0  0  0  0  0  0  0  0
    1.9927   -0.0000    0.0000 C   0  0  0  0  0  0  0  0  0  0  0  0
    4.0006   -1.1569    0.0000 C   0  0  0  0  0  0  0  0  0  0  0  0
    5.0963   -0.4638    0.0000 N   0  0  0  0  0  0  0  0  0  0  0  0
  1  2  2  0  0  0  0 
  1  3  1  0  0  0  0 
  2  4  1  0  0  0  0 
  3  5  2  0  0  0  0 
  4  6  2  0  0  0  0 
  5  6  1  0  0  0  0 
  5  7  1  0  0  0  0 
  7  8  3  0  0  0  0 
M  END
> <Name>
3-Pyridinecarbonitrile

> <Source>
DSSTox2DMolFile

> <Tox>
1.944

> <CAS>
100-54-9

$$$$

  CDK

  8  8  0  0  0  0  0  0  0  0999 V2000
    0.0000   -0.0000    0.0000 N   0  0  0  0  0  0  0  0  0  0  0  0
    0.6654   -1.1540    0.0000 N   0  0  0  0  0  0  0  0  0  0  0  0
    1.9962   -1.1540    0.0000 C   0  0  0  0  0  0  0  0  0  0  0  0
    2.6569   -0.0000    0.0000 C   0  0  0  0  0  0  0  0  0  0  0  0
    2.6569   -2.3033    0.0000 C   0  0  0  0  0  0  0  0  0  0  0  0
    3.9877   -0.0000    0.0000 C   0  0  0  0  0  0  0  0  0  0  0  0
    3.9877   -2.3033    0.0000 C   0  0  0  0  0  0  0  0  0  0  0  0
    4.6531   -1.1540    0.0000 C   0  0  0  0  0  0  0  0  0  0  0  0
  1  2  1  0  0  0  0 
  2  3  1  0  0  0  0 
  3  4  2  0  0  0  0 
  3  5  1  0  0  0  0 
  4  6  1  0  0  0  0 
  7  5  2  0  0  0  0 
  6  8  2  0  0  0  0 
  8  7  1  0  0  0  0 
M  END
> <Name>
Hydrazine, phenyl-

> <Source>
DSSTox2DMolFile

> <Tox>
2.760

> <CAS>
100-63-0

$$$$

  CDK

  8  8  0  0  0  0  0  0  0  0999 V2000
    0.6654   -1.1540    0.0000 N   0  0  0  0  0  0  0  0  0  0  0  0
    0.0000   -0.0000    0.0000 O   0  0  0  0  0  0  0  0  0  0  0  0
    1.9962   -1.1540    0.0000 C   0  0  0  0  0  0  0  0  0  0  0  0
    2.6569   -0.0000    0.0000 C   0  0  0  0  0  0  0  0  0  0  0  0
    2.6569   -2.3033    0.0000 C   0  0  0  0  0  0  0  0  0  0  0  0
    3.9877   -0.0000    0.0000 C   0  0  0  0  0  0  0  0  0  0  0  0
    3.9877   -2.3033    0.0000 C   0  0  0  0  0  0  0  0  0  0  0  0
    4.6531   -1.1540    0.0000 C   0  0  0  0  0  0  0  0  0  0  0  0
  1  2  1  0  0  0  0 
  1  3  1  0  0  0  0 
  3  4  2  0  0  0  0 
  3  5  1  0  0  0  0 
  4  6  1  0  0  0  0 
  7  5  2  0  0  0  0 
  6  8  2  0  0  0  0 
  8  7  1  0  0  0  0 
M  END
> <Name>
Hydroxylamine, N-phenyl-

> <Source>
DSSTox2DMolFile

> <Tox>
3.038

> <CAS>
100-65-2

$$$$

  CDK

  8  8  0  0  0  0  0  0  0  0999 V2000
    4.6531   -1.1540    0.0000 O   0  0  0  0  0  0  0  0  0  0  0  0
    3.9877   -2.3033    0.0000 C   0  0  0  0  0  0  0  0  0  0  0  0
    3.9877   -0.0000    0.0000 C   0  0  0  0  0  0  0  0  0  0  0  0
    2.6569   -2.3033    0.0000 C   0  0  0  0  0  0  0  0  0  0  0  0
    2.6569   -0.0000    0.0000 C   0  0  0  0  0  0  0  0  0  0  0  0
    1.9962   -1.1540    0.0000 N   0  0  0  0  0  0  0  0  0  0  0  0
    0.6654   -1.1540    0.0000 C   0  0  0  0  0  0  0  0  0  0  0  0
    0.0000   -0.0000    0.0000 C   0  0  0  0  0  0  0  0  0  0  0  0
  1  2  1  0  0  0  0 
  1  3  1  0  0  0  0 
  2  4  1  0  0  0  0 
  5  3  1  0  0  0  0 
  4  6  1  0  0  0  0 
  6  5  1  0  0  0  0 
  6  7  1  0  0  0  0 
  7  8  1  0  0  0  0 
M  END
> <Name>
Morpholine, 4-ethyl-

> <Source>
DSSTox2DMolFile

> <Tox>
1.811

> <CAS>
100-74-3

$$$$

  CDK

  8  8  0  0  0  0  0  0  0  0999 V2000
    0.0000   -0.0000    0.0000 O   0  0  0  0  0  0  0  0  0  0  0  0
    0.6654   -1.1540    0.0000 N   0  0  0  0  0  0  0  0  0  0  0  0
    1.9962   -1.1540    0.0000 N   0  0  0  0  0  0  0  0  0  0  0  0
    2.6569   -0.0000    0.0000 C   0  0  0  0  0  0  0  0  0  0  0  0
    2.6569   -2.3033    0.0000 C   0  0  0  0  0  0  0  0  0  0  0  0
    3.9877   -0.0000    0.0000 C   0  0  0  0  0  0  0  0  0  0  0  0
    3.9877   -2.3033    0.0000 C   0  0  0  0  0  0  0  0  0  0  0  0
    4.6531   -1.1540    0.0000 C   0  0  0  0  0  0  0  0  0  0  0  0
  1  2  2  0  0  0  0 
  2  3  1  0  0  0  0 
  3  4  1  0  0  0  0 
  3  5  1  0  0  0  0 
  4  6  1  0  0  0  0 
  7  5  1  0  0  0  0 
  6  8  1  0  0  0  0 
  8  7  1  0  0  0  0 
M  END
> <Name>
Piperidine, 1-nitroso-

> <Source>
DSSTox2DMolFile

> <Tox>
2.756

> <CAS>
100-75-4

$$$$

  CDK

 11 11  0  0  0  0  0  0  0  0999 V2000
    1.9466    0.0146    0.0834 C   0  0  0  0  0  0  0  0  0  0  0  0
    0.8815    0.0162   -1.0441 C   0  0  0  0  0  0  0  0  0  0  0  0
    3.3397   -0.0885   -0.5499 C   0  0  0  0  0  0  0  0  0  0  0  0
    1.8551    1.2987    0.9176 C   0  0  0  0  0  0  0  0  0  0  0  0
    1.8190   -1.1286    0.9184 O   0  0  0  0  0  0  0  0  0  0  0  0
   -0.5274    0.0067   -0.5450 C   0  0  0  0  0  0  0  0  0  0  0  0
   -1.1787   -1.2043   -0.2995 C   0  0  0  0  0  0  0  0  0  0  0  0
   -1.2136    1.2062   -0.3423 C   0  0  0  0  0  0  0  0  0  0  0  0
   -2.4949   -1.2129    0.1488 C   0  0  0  0  0  0  0  0  0  0  0  0
   -2.5296    1.1935    0.1051 C   0  0  0  0  0  0  0  0  0  0  0  0
   -3.1717   -0.0152    0.3525 C   0  0  0  0  0  0  0  0  0  0  0  0
  1  2  1  0  0  0  0 
  1  3  1  0  0  0  0 
  1  4  1  0  0  0  0 
  1  5  1  0  0  0  0 
  2  6  1  0  0  0  0 
  6  7  1  0  0  0  0 
  6  8  2  0  0  0  0 
  7  9  2  0  0  0  0 
 10  8  1  0  0  0  0 
  9 11  1  0  0  0  0 
 11 10  2  0  0  0  0 
M  END
> <Name>
Phenethyl alcohol, alpha,alpha-dimethyl-

> <Source>
DougDB3DMolFile

> <Tox>
2.070

> <CAS>
100-86-7

$$$$

  CDK

 14 14  0  0  0  0  0  0  0  0999 V2000
    3.4524   -0.6629    0.0000 O   0  0  0  0  0  0  0  0  0  0  0  0
    3.4524   -1.9978    0.0000 C   0  0  0  0  0  0  0  0  0  0  0  0
    4.6031   -2.6606    0.0000 N   0  0  0  0  0  0  0  0  0  0  0  0
    2.3016   -2.6606    0.0000 O   0  0  0  0  0  0  0  0  0  0  0  0
    5.7539   -1.9978    0.0000 C   0  0  0  0  0  0  0  0  0  0  0  0
    1.1508   -1.9978    0.0000 C   0  0  0  0  0  0  0  0  0  0  0  0
    5.7539   -0.6629    0.0000 C   0  0  0  0  0  0  0  0  0  0  0  0
    6.9047   -2.6606    0.0000 C   0  0  0  0  0  0  0  0  0  0  0  0
    0.0000   -2.6606    0.0000 C   0  0  0  0  0  0  0  0  0  0  0  0
    1.1508   -0.6629    0.0000 C   0  0  0  0  0  0  0  0  0  0  0  0
    6.9047   -0.0000    0.0000 C   0  0  0  0  0  0  0  0  0  0  0  0
    8.0555   -1.9978    0.0000 C   0  0  0  0  0  0  0  0  0  0  0  0
    8.0555   -0.6629    0.0000 C   0  0  0  0  0  0  0  0  0  0  0  0
    9.2063   -2.6606    0.0000 Cl  0  0  0  0  0  0  0  0  0  0  0  0
  1  2  2  0  0  0  0 
  2  3  1  0  0  0  0 
  2  4  1  0  0  0  0 
  3  5  1  0  0  0  0 
  4  6  1  0  0  0  0 
  5  7  2  0  0  0  0 
  5  8  1  0  0  0  0 
  6  9  1  0  0  0  0 
  6 10  1  0  0  0  0 
  7 11  1  0  0  0  0 
 12  8  2  0  0  0  0 
 11 13  2  0  0  0  0 
 13 12  1  0  0  0  0 
 12 14  1  0  0  0  0 
M  END
> <Name>
Carbamic acid, (3-chlorophenyl)-, 1-methylethyl ester (9CI)

> <Source>
DSSTox2DMolFile

> <Tox>
2.251

> <CAS>
101-21-3

$$$$

  CDK

 15 14  0  0  0  0  0  0  0  0999 V2000
    1.1779    0.0231   -0.2684 C   0  0  0  0  0  0  0  0  0  0  0  0
   -0.1381    0.6970   -0.6990 C   0  0  0  0  0  0  0  0  0  0  0  0
    2.2391    0.7753   -0.8151 O   0  0  0  0  0  0  0  0  0  0  0  0
    1.4322    0.2473    1.1054 O   0  0  0  0  0  0  0  0  0  0  0  0
   -1.3730   -0.0227   -0.1411 C   0  0  0  0  0  0  0  0  0  0  0  0
    3.3845    0.0135   -1.1727 C   0  0  0  0  0  0  0  0  0  0  0  0
    1.5126   -0.9263    1.9007 C   0  0  0  0  0  0  0  0  0  0  0  0
   -2.6355    0.8258   -0.3701 C   0  0  0  0  0  0  0  0  0  0  0  0
   -1.4819   -1.2637   -0.8442 O   0  0  0  0  0  0  0  0  0  0  0  0
    4.4481    0.9933   -1.6301 C   0  0  0  0  0  0  0  0  0  0  0  0
    1.7276   -0.4842    3.3357 C   0  0  0  0  0  0  0  0  0  0  0  0
   -2.5961    2.0975    0.4624 C   0  0  0  0  0  0  0  0  0  0  0  0
   -2.0624   -2.3094   -0.0795 C   0  0  0  0  0  0  0  0  0  0  0  0
   -3.7562    3.0102    0.1404 C   0  0  0  0  0  0  0  0  0  0  0  0
   -2.1934   -3.5126   -0.9942 C   0  0  0  0  0  0  0  0  0  0  0  0
  1  2  1  0  0  0  0 
  1  3  1  0  0  0  0 
  1  4  1  0  0  0  0 
  2  5  1  0  0  0  0 
  3  6  1  0  0  0  0 
  4  7  1  0  0  0  0 
  5  8  1  0  0  0  0 
  5  9  1  0  0  0  0 
  6 10  1  0  0  0  0 
  7 11  1  0  0  0  0 
  8 12  1  0  0  0  0 
  9 13  1  0  0  0  0 
 12 14  1  0  0  0  0 
 13 15  1  0  0  0  0 
M  END
> <Name>
Hexanal, 3-ethoxy-, diethyl acetal

> <Source>
DougDB3DMolFile

> <Tox>
1.205

> <CAS>
101-33-7

$$$$

  CDK

 12 12  0  0  0  0  0  0  0  0999 V2000
   -1.5317   -0.1133    0.0074 C   0  0  0  0  0  0  0  0  0  0  0  0
   -0.4631   -0.3255    1.1046 C   0  0  0  0  0  0  0  0  0  0  0  0
   -2.7565   -0.6237    0.4898 O   0  0  0  0  0  0  0  0  0  0  0  0
   -1.9483    1.2324   -0.1222 O   0  0  0  0  0  0  0  0  0  0  0  0
    0.9186   -0.2620    0.5404 C   0  0  0  0  0  0  0  0  0  0  0  0
   -3.6131   -1.1488   -0.4923 C   0  0  0  0  0  0  0  0  0  0  0  0
   -1.1391    2.0403   -0.9345 C   0  0  0  0  0  0  0  0  0  0  0  0
    1.7456    0.8294    0.8113 C   0  0  0  0  0  0  0  0  0  0  0  0
    1.3997   -1.3090   -0.2488 C   0  0  0  0  0  0  0  0  0  0  0  0
    3.0367    0.8721    0.2965 C   0  0  0  0  0  0  0  0  0  0  0  0
    2.6900   -1.2618   -0.7629 C   0  0  0  0  0  0  0  0  0  0  0  0
    3.5101   -0.1716   -0.4912 C   0  0  0  0  0  0  0  0  0  0  0  0
  1  2  1  0  0  0  0 
  1  3  1  0  0  0  0 
  1  4  1  0  0  0  0 
  2  5  1  0  0  0  0 
  3  6  1  0  0  0  0 
  4  7  1  0  0  0  0 
  5  8  1  0  0  0  0 
  5  9  2  0  0  0  0 
  8 10  2  0  0  0  0 
 11  9  1  0  0  0  0 
 10 12  1  0  0  0  0 
 12 11  2  0  0  0  0 
M  END
> <Name>
Acetaldehyde, phenyl-, dimethyl acetal

> <Source>
DougDB3DMolFile

> <Tox>
1.675

> <CAS>
101-48-4

$$$$

  CDK

 19 20  0  0  0  0  0  0  0  0999 V2000
    0.0000   -1.3381    0.0000 O   0  0  0  0  0  0  0  0  0  0  0  0
    1.1449   -0.6621    0.0000 C   0  0  0  0  0  0  0  0  0  0  0  0
    2.2899   -0.0000    0.0000 N   0  0  0  0  0  0  0  0  0  0  0  0
    3.4486   -0.6621    0.0000 C   0  0  0  0  0  0  0  0  0  0  0  0
    4.5936   -0.0000    0.0000 C   0  0  0  0  0  0  0  0  0  0  0  0
    3.4486   -2.0002    0.0000 C   0  0  0  0  0  0  0  0  0  0  0  0
    5.7523   -0.6621    0.0000 C   0  0  0  0  0  0  0  0  0  0  0  0
    4.5936   -2.6624    0.0000 C   0  0  0  0  0  0  0  0  0  0  0  0
    5.7523   -2.0002    0.0000 C   0  0  0  0  0  0  0  0  0  0  0  0
    6.9111   -2.6624    0.0000 C   0  0  0  0  0  0  0  0  0  0  0  0
    8.0422   -2.0002    0.0000 C   0  0  0  0  0  0  0  0  0  0  0  0
    9.2010   -2.6624    0.0000 C   0  0  0  0  0  0  0  0  0  0  0  0
    8.0422   -0.6621    0.0000 C   0  0  0  0  0  0  0  0  0  0  0  0
   10.3459   -2.0002    0.0000 C   0  0  0  0  0  0  0  0  0  0  0  0
    9.2010   -0.0000    0.0000 C   0  0  0  0  0  0  0  0  0  0  0  0
   10.3459   -0.6621    0.0000 C   0  0  0  0  0  0  0  0  0  0  0  0
   11.5047   -0.0000    0.0000 N   0  0  0  0  0  0  0  0  0  0  0  0
   12.6496   -0.6621    0.0000 C   0  0  0  0  0  0  0  0  0  0  0  0
   13.7946   -1.3381    0.0000 O   0  0  0  0  0  0  0  0  0  0  0  0
  1  2  2  0  0  0  0 
  2  3  2  0  0  0  0 
  4  3  1  0  0  0  0 
  5  4  1  0  0  0  0 
  4  6  2  0  0  0  0 
  7  5  2  0  0  0  0 
  8  6  1  0  0  0  0 
  7  9  1  0  0  0  0 
  9  8  2  0  0  0  0 
 10  9  1  0  0  0  0 
 10 11  1  0  0  0  0 
 12 11  1  0  0  0  0 
 13 11  2  0  0  0  0 
 14 12  2  0  0  0  0 
 15 13  1  0  0  0  0 
 16 14  1  0  0  0  0 
 16 15  2  0  0  0  0 
 16 17  1  0  0  0  0 
 17 18  2  0  0  0  0 
 18 19  2  0  0  0  0 
M  END
> <Name>
Isocyanic acid, methylenedi-p-phenylene ester

> <Source>
DSSTox2DMolFile

> <Tox>
1.435

> <CAS>
101-68-8

$$$$

  CDK

 17 18  0  0  0  0  0  0  0  0999 V2000
   10.3664   -2.6607    0.0000 O   0  0  0  0  0  0  0  0  0  0  0  0
    9.2146   -1.9927    0.0000 C   0  0  0  0  0  0  0  0  0  0  0  0
   11.5183   -1.9927    0.0000 C   0  0  0  0  0  0  0  0  0  0  0  0
    8.0628   -2.6607    0.0000 C   0  0  0  0  0  0  0  0  0  0  0  0
    9.2146   -0.6681    0.0000 C   0  0  0  0  0  0  0  0  0  0  0  0
    6.9110   -1.9927    0.0000 C   0  0  0  0  0  0  0  0  0  0  0  0
    8.0628   -0.0000    0.0000 C   0  0  0  0  0  0  0  0  0  0  0  0
    6.9110   -0.6681    0.0000 C   0  0  0  0  0  0  0  0  0  0  0  0
    5.7591   -0.0000    0.0000 N   0  0  0  0  0  0  0  0  0  0  0  0
    4.6073   -0.6681    0.0000 C   0  0  0  0  0  0  0  0  0  0  0  0
    4.6073   -1.9927    0.0000 C   0  0  0  0  0  0  0  0  0  0  0  0
    3.4555   -0.0000    0.0000 C   0  0  0  0  0  0  0  0  0  0  0  0
    3.4555   -2.6607    0.0000 C   0  0  0  0  0  0  0  0  0  0  0  0
    2.3037   -0.6681    0.0000 C   0  0  0  0  0  0  0  0  0  0  0  0
    2.3037   -1.9927    0.0000 C   0  0  0  0  0  0  0  0  0  0  0  0
    1.1518   -2.6607    0.0000 O   0  0  0  0  0  0  0  0  0  0  0  0
    0.0000   -1.9927    0.0000 C   0  0  0  0  0  0  0  0  0  0  0  0
  1  2  1  0  0  0  0 
  1  3  1  0  0  0  0 
  2  4  2  0  0  0  0 
  2  5  1  0  0  0  0 
  4  6  1  0  0  0  0 
  7  5  2  0  0  0  0 
  6  8  2  0  0  0  0 
  8  7  1  0  0  0  0 
  8  9  1  0  0  0  0 
  9 10  1  0  0  0  0 
 10 11  2  0  0  0  0 
 10 12  1  0  0  0  0 
 11 13  1  0  0  0  0 
 14 12  2  0  0  0  0 
 13 15  2  0  0  0  0 
 15 14  1  0  0  0  0 
 15 16  1  0  0  0  0 
 16 17  1  0  0  0  0 
M  END
> <Name>
Benzenamine, 4-methoxy-N-(4-methoxyphenyl)-

> <Source>
DSSTox2DMolFile

> <Tox>
1.968

> <CAS>
101-70-2

$$$$

  CDK

 15 16  0  0  0  0  0  0  0  0999 V2000
    8.0570   -1.9981    0.0000 C   0  0  0  0  0  0  0  0  0  0  0  0
    9.2080   -2.6611    0.0000 N   0  0  0  0  0  0  0  0  0  0  0  0
    6.9060   -2.6611    0.0000 C   0  0  0  0  0  0  0  0  0  0  0  0
    8.0570   -0.6630    0.0000 C   0  0  0  0  0  0  0  0  0  0  0  0
    5.7550   -1.9981    0.0000 C   0  0  0  0  0  0  0  0  0  0  0  0
    6.9060   -0.0000    0.0000 C   0  0  0  0  0  0  0  0  0  0  0  0
    5.7550   -0.6630    0.0000 C   0  0  0  0  0  0  0  0  0  0  0  0
    4.6040   -0.0000    0.0000 C   0  0  0  0  0  0  0  0  0  0  0  0
    3.4530   -0.6630    0.0000 C   0  0  0  0  0  0  0  0  0  0  0  0
    3.4530   -1.9981    0.0000 C   0  0  0  0  0  0  0  0  0  0  0  0
    2.3020   -0.0000    0.0000 C   0  0  0  0  0  0  0  0  0  0  0  0
    2.3020   -2.6611    0.0000 C   0  0  0  0  0  0  0  0  0  0  0  0
    1.1510   -0.6630    0.0000 C   0  0  0  0  0  0  0  0  0  0  0  0
    1.1510   -1.9981    0.0000 C   0  0  0  0  0  0  0  0  0  0  0  0
    0.0000   -2.6611    0.0000 N   0  0  0  0  0  0  0  0  0  0  0  0
  1  2  1  0  0  0  0 
  1  3  1  0  0  0  0 
  1  4  2  0  0  0  0 
  3  5  2  0  0  0  0 
  6  4  1  0  0  0  0 
  5  7  1  0  0  0  0 
  7  6  2  0  0  0  0 
  7  8  1  0  0  0  0 
  8  9  1  0  0  0  0 
  9 10  2  0  0  0  0 
  9 11  1  0  0  0  0 
 10 12  1  0  0  0  0 
 13 11  2  0  0  0  0 
 12 14  2  0  0  0  0 
 14 13  1  0  0  0  0 
 14 15  1  0  0  0  0 
M  END
> <Name>
Benzenamine, 4,4'-methylenebis-

> <Source>
DSSTox2DMolFile

> <Tox>
2.584

> <CAS>
101-77-9

$$$$

  CDK

 13 14  0  0  0  0  0  0  0  0999 V2000
    3.4548   -2.6602    0.0000 N   0  0  0  0  0  0  0  0  0  0  0  0
    2.3009   -1.9969    0.0000 C   0  0  0  0  0  0  0  0  0  0  0  0
    4.6087   -1.9969    0.0000 C   0  0  0  0  0  0  0  0  0  0  0  0
    1.1539   -2.6602    0.0000 C   0  0  0  0  0  0  0  0  0  0  0  0
    2.3009   -0.6633    0.0000 C   0  0  0  0  0  0  0  0  0  0  0  0
    4.6087   -0.6633    0.0000 C   0  0  0  0  0  0  0  0  0  0  0  0
    5.7557   -2.6602    0.0000 C   0  0  0  0  0  0  0  0  0  0  0  0
    0.0000   -1.9969    0.0000 C   0  0  0  0  0  0  0  0  0  0  0  0
    1.1539   -0.0000    0.0000 C   0  0  0  0  0  0  0  0  0  0  0  0
    5.7557   -0.0000    0.0000 C   0  0  0  0  0  0  0  0  0  0  0  0
    6.9096   -1.9969    0.0000 C   0  0  0  0  0  0  0  0  0  0  0  0
    0.0000   -0.6633    0.0000 C   0  0  0  0  0  0  0  0  0  0  0  0
    6.9096   -0.6633    0.0000 C   0  0  0  0  0  0  0  0  0  0  0  0
  1  2  1  0  0  0  0 
  1  3  1  0  0  0  0 
  2  4  1  0  0  0  0 
  2  5  1  0  0  0  0 
  3  6  1  0  0  0  0 
  3  7  1  0  0  0  0 
  4  8  1  0  0  0  0 
  9  5  1  0  0  0  0 
  6 10  1  0  0  0  0 
 11  7  1  0  0  0  0 
  8 12  1  0  0  0  0 
 12  9  1  0  0  0  0 
 10 13  1  0  0  0  0 
 13 11  1  0  0  0  0 
M  END
> <Name>
Cyclohexanamine, N-cyclohexyl-

> <Source>
DSSTox2DMolFile

> <Tox>
2.687

> <CAS>
101-83-7

$$$$

  CDK

 16 18  0  0  0  0  0  0  0  0999 V2000
    3.6336   -2.6599    0.0000 O   0  0  0  0  0  0  0  0  0  0  0  0
    2.4818   -1.9949    0.0000 C   0  0  0  0  0  0  0  0  0  0  0  0
    4.7855   -1.9949    0.0000 C   0  0  0  0  0  0  0  0  0  0  0  0
    1.3300   -2.6599    0.0000 C   0  0  0  0  0  0  0  0  0  0  0  0
    4.7855   -0.6650    0.0000 C   0  0  0  0  0  0  0  0  0  0  0  0
    5.9373   -2.6599    0.0000 C   0  0  0  0  0  0  0  0  0  0  0  0
    0.6650   -3.8118    0.0000 C   0  0  0  0  0  0  0  0  0  0  0  0
    0.0000   -2.6599    0.0000 O   0  0  0  0  0  0  0  0  0  0  0  0
    5.9373   -0.0000    0.0000 C   0  0  0  0  0  0  0  0  0  0  0  0
    7.0892   -1.9949    0.0000 C   0  0  0  0  0  0  0  0  0  0  0  0
    7.0892   -0.6650    0.0000 C   0  0  0  0  0  0  0  0  0  0  0  0
    8.2410   -2.6599    0.0000 O   0  0  0  0  0  0  0  0  0  0  0  0
    9.3928   -1.9949    0.0000 C   0  0  0  0  0  0  0  0  0  0  0  0
   10.5447   -2.6599    0.0000 C   0  0  0  0  0  0  0  0  0  0  0  0
   11.8746   -2.6599    0.0000 C   0  0  0  0  0  0  0  0  0  0  0  0
   11.2097   -3.8118    0.0000 O   0  0  0  0  0  0  0  0  0  0  0  0
  1  2  1  0  0  0  0 
  1  3  1  0  0  0  0 
  2  4  1  0  0  0  0 
  3  5  2  0  0  0  0 
  3  6  1  0  0  0  0 
  4  7  1  0  0  0  0 
  4  8  1  0  0  0  0 
  5  9  1  0  0  0  0 
 10  6  2  0  0  0  0 
  7  8  1  0  0  0  0 
  9 11  2  0  0  0  0 
 11 10  1  0  0  0  0 
 10 12  1  0  0  0  0 
 12 13  1  0  0  0  0 
 13 14  1  0  0  0  0 
 14 15  1  0  0  0  0 
 14 16  1  0  0  0  0 
 15 16  1  0  0  0  0 
M  END
> <Name>
Oxirane, 2,2'-(1,3-phenylenebis(oxymethylene))bis-

> <Source>
DSSTox2DMolFile

> <Tox>
1.937

> <CAS>
101-90-6

$$$$

  CDK

 16 17  0  0  0  0  0  0  0  0999 V2000
    5.7537   -2.6605    0.0000 N   0  0  0  0  0  0  0  0  0  0  0  0
    6.9044   -1.9977    0.0000 C   0  0  0  0  0  0  0  0  0  0  0  0
    4.6029   -1.9977    0.0000 C   0  0  0  0  0  0  0  0  0  0  0  0
    6.9044   -0.6628    0.0000 C   0  0  0  0  0  0  0  0  0  0  0  0
    8.0551   -2.6605    0.0000 C   0  0  0  0  0  0  0  0  0  0  0  0
    4.6029   -0.6628    0.0000 S   0  0  0  0  0  0  0  0  0  0  0  0
    3.4522   -2.6605    0.0000 N   0  0  0  0  0  0  0  0  0  0  0  0
    8.0551   -0.0000    0.0000 C   0  0  0  0  0  0  0  0  0  0  0  0
    9.2059   -1.9977    0.0000 C   0  0  0  0  0  0  0  0  0  0  0  0
    2.3015   -1.9977    0.0000 C   0  0  0  0  0  0  0  0  0  0  0  0
    9.2059   -0.6628    0.0000 C   0  0  0  0  0  0  0  0  0  0  0  0
    1.1507   -2.6605    0.0000 C   0  0  0  0  0  0  0  0  0  0  0  0
    2.3015   -0.6628    0.0000 C   0  0  0  0  0  0  0  0  0  0  0  0
    0.0000   -1.9977    0.0000 C   0  0  0  0  0  0  0  0  0  0  0  0
    1.1507   -0.0000    0.0000 C   0  0  0  0  0  0  0  0  0  0  0  0
    0.0000   -0.6628    0.0000 C   0  0  0  0  0  0  0  0  0  0  0  0
  1  2  1  0  0  0  0 
  1  3  1  0  0  0  0 
  2  4  2  0  0  0  0 
  2  5  1  0  0  0  0 
  3  6  2  0  0  0  0 
  3  7  1  0  0  0  0 
  4  8  1  0  0  0  0 
  9  5  2  0  0  0  0 
  7 10  1  0  0  0  0 
  8 11  2  0  0  0  0 
 11  9  1  0  0  0  0 
 10 12  2  0  0  0  0 
 10 13  1  0  0  0  0 
 12 14  1  0  0  0  0 
 15 13  2  0  0  0  0 
 14 16  2  0  0  0  0 
 16 15  1  0  0  0  0 
M  END
> <Name>
Thiourea, N,N'-diphenyl-

> <Source>
DSSTox2DMolFile

> <Tox>
3.660

> <CAS>
102-08-9

$$$$

  CDK

 18 19  0  0  0  0  0  0  0  0999 V2000
    6.8887    1.5085    0.0000 C   0  0  0  0  0  0  0  0  0  0  0  0
    7.7937    1.9610    0.0000 C   0  0  0  0  0  0  0  0  0  0  0  0
    6.8887    0.5028    0.0000 C   0  0  0  0  0  0  0  0  0  0  0  0
    6.0339    2.0113    0.0000 C   0  0  0  0  0  0  0  0  0  0  0  0
    8.6485    1.5085    0.0000 C   0  0  0  0  0  0  0  0  0  0  0  0
    7.7435    0.0503    0.0000 C   0  0  0  0  0  0  0  0  0  0  0  0
    5.1791    1.5085    0.0000 C   0  0  0  0  0  0  0  0  0  0  0  0
    8.6485    0.4525    0.0000 C   0  0  0  0  0  0  0  0  0  0  0  0
    4.2740    2.0113    0.0000 O   0  0  0  0  0  0  0  0  0  0  0  0
    3.4192    1.5085    0.0000 C   0  0  0  0  0  0  0  0  0  0  0  0
    2.5644    2.0113    0.0000 C   0  0  0  0  0  0  0  0  0  0  0  0
    3.4192    0.5028    0.0000 O   0  0  0  0  0  0  0  0  0  0  0  0
    1.7599    1.4582    0.0000 C   0  0  0  0  0  0  0  0  0  0  0  0
    0.8548    1.9610    0.0000 C   0  0  0  0  0  0  0  0  0  0  0  0
    1.7599    0.4525    0.0000 C   0  0  0  0  0  0  0  0  0  0  0  0
    0.0000    1.4582    0.0000 C   0  0  0  0  0  0  0  0  0  0  0  0
    0.8548    0.0000    0.0000 C   0  0  0  0  0  0  0  0  0  0  0  0
    0.0000    0.4525    0.0000 C   0  0  0  0  0  0  0  0  0  0  0  0
  1  2  2  0  0  0  0 
  3  1  1  0  0  0  0 
  1  4  1  0  0  0  0 
  2  5  1  0  0  0  0 
  6  3  2  0  0  0  0 
  4  7  1  0  0  0  0 
  5  8  2  0  0  0  0 
  8  6  1  0  0  0  0 
  7  9  1  0  0  0  0 
 10  9  1  0  0  0  0 
 11 10  1  0  0  0  0 
 10 12  2  0  0  0  0 
 13 11  1  0  0  0  0 
 14 13  1  0  0  0  0 
 13 15  2  0  0  0  0 
 16 14  2  0  0  0  0 
 15 17  1  0  0  0  0 
 18 16  1  0  0  0  0 
 17 18  2  0  0  0  0 
M  END
> <Name>
Benzeneacetic acid, 2-phenylethyl ester

> <Source>
NIST2DMolFile

> <Tox>
1.205

> <CAS>
102-20-5

$$$$

  CDK

 10 10  0  0  0  0  0  0  0  0999 V2000
    6.9112   -2.6608    0.0000 C   0  0  0  0  0  0  0  0  0  0  0  0
    5.7570   -1.9973    0.0000 C   0  0  0  0  0  0  0  0  0  0  0  0
    4.6098   -2.6608    0.0000 N   0  0  0  0  0  0  0  0  0  0  0  0
    3.4556   -1.9973    0.0000 C   0  0  0  0  0  0  0  0  0  0  0  0
    2.3014   -2.6608    0.0000 C   0  0  0  0  0  0  0  0  0  0  0  0
    3.4556   -0.6635    0.0000 C   0  0  0  0  0  0  0  0  0  0  0  0
    1.1542   -1.9973    0.0000 C   0  0  0  0  0  0  0  0  0  0  0  0
    2.3014   -0.0000    0.0000 C   0  0  0  0  0  0  0  0  0  0  0  0
    0.0000   -2.6608    0.0000 C   0  0  0  0  0  0  0  0  0  0  0  0
    1.1542   -0.6635    0.0000 C   0  0  0  0  0  0  0  0  0  0  0  0
  1  2  1  0  0  0  0 
  2  3  1  0  0  0  0 
  3  4  1  0  0  0  0 
  4  5  2  0  0  0  0 
  4  6  1  0  0  0  0 
  5  7  1  0  0  0  0 
  8  6  2  0  0  0  0 
  7  9  1  0  0  0  0 
  7 10  2  0  0  0  0 
 10  8  1  0  0  0  0 
M  END
> <Name>
Benzenamine, N-ethyl-3-methyl-

> <Source>
DSSTox2DMolFile

> <Tox>
2.368

> <CAS>
102-27-2

$$$$

  CDK

 10  9  0  0  0  0  0  0  0  0999 V2000
    3.3305   -3.4623    0.0000 N   0  0  0  0  0  0  0  0  0  0  0  0
    2.0007   -3.4623    0.0000 C   0  0  0  0  0  0  0  0  0  0  0  0
    3.9895   -4.6124    0.0000 C   0  0  0  0  0  0  0  0  0  0  0  0
    3.9895   -2.3062    0.0000 C   0  0  0  0  0  0  0  0  0  0  0  0
    1.3298   -4.6124    0.0000 C   0  0  0  0  0  0  0  0  0  0  0  0
    5.3193   -4.6124    0.0000 C   0  0  0  0  0  0  0  0  0  0  0  0
    3.3305   -1.1561    0.0000 C   0  0  0  0  0  0  0  0  0  0  0  0
    0.0000   -4.6124    0.0000 C   0  0  0  0  0  0  0  0  0  0  0  0
    5.9902   -5.7685    0.0000 C   0  0  0  0  0  0  0  0  0  0  0  0
    3.9895   -0.0000    0.0000 C   0  0  0  0  0  0  0  0  0  0  0  0
  1  2  1  0  0  0  0 
  1  3  1  0  0  0  0 
  1  4  1  0  0  0  0 
  2  5  1  0  0  0  0 
  3  6  1  0  0  0  0 
  4  7  1  0  0  0  0 
  5  8  2  0  0  0  0 
  6  9  2  0  0  0  0 
  7 10  2  0  0  0  0 
M  END
> <Name>
2-Propen-1-amine, N,N-di-2-propenyl-

> <Source>
DSSTox2DMolFile

> <Tox>
2.125

> <CAS>
102-70-5

$$$$

  CDK

 11 10  0  0  0  0  0  0  0  0999 V2000
   -0.1008   -0.6358   -0.4408 N   0  0  0  0  0  0  0  0  0  0  0  0
   -1.5581   -0.9540   -0.4228 C   0  0  0  0  0  0  0  0  0  0  0  0
    0.7545   -1.8547   -0.3564 C   0  0  0  0  0  0  0  0  0  0  0  0
    0.2935    0.3152   -1.5209 C   0  0  0  0  0  0  0  0  0  0  0  0
   -2.2771    0.0056    0.5343 C   0  0  0  0  0  0  0  0  0  0  0  0
    1.7985   -1.7004    0.7605 C   0  0  0  0  0  0  0  0  0  0  0  0
    0.1349    1.7687   -1.0778 C   0  0  0  0  0  0  0  0  0  0  0  0
   -3.6451   -0.3337    0.5070 O   0  0  0  0  0  0  0  0  0  0  0  0
    2.8715   -0.8682    0.4158 O   0  0  0  0  0  0  0  0  0  0  0  0
    1.1788    2.2241   -0.0649 C   0  0  0  0  0  0  0  0  0  0  0  0
    0.7061    2.0992    1.3670 C   0  0  0  0  0  0  0  0  0  0  0  0
  1  2  1  0  0  0  0 
  1  3  1  0  0  0  0 
  1  4  1  0  0  0  0 
  5  2  1  0  0  0  0 
  6  3  1  0  0  0  0 
  4  7  1  0  0  0  0 
  5  8  1  0  0  0  0 
  6  9  1  0  0  0  0 
  7 10  1  0  0  0  0 
 10 11  1  0  0  0  0 
M  END
> <Name>
Ethanol, 2,2'-(butylimino)bis-

> <Source>
DougDB3DMolFile

> <Tox>
1.579

> <CAS>
102-79-4

$$$$

  CDK

 12 11  0  0  0  0  0  0  0  0999 V2000
    5.3208   -3.4534    0.0000 O   0  0  0  0  0  0  0  0  0  0  0  0
    5.9851   -2.3043    0.0000 C   0  0  0  0  0  0  0  0  0  0  0  0
    5.3208   -1.1491    0.0000 C   0  0  0  0  0  0  0  0  0  0  0  0
    3.9921   -1.1491    0.0000 N   0  0  0  0  0  0  0  0  0  0  0  0
    3.3277   -2.3043    0.0000 C   0  0  0  0  0  0  0  0  0  0  0  0
    3.3277   -0.0000    0.0000 C   0  0  0  0  0  0  0  0  0  0  0  0
    1.9930   -2.3043    0.0000 C   0  0  0  0  0  0  0  0  0  0  0  0
    1.9930   -0.0000    0.0000 C   0  0  0  0  0  0  0  0  0  0  0  0
    1.3287   -3.4534    0.0000 C   0  0  0  0  0  0  0  0  0  0  0  0
    1.3287   -1.1491    0.0000 C   0  0  0  0  0  0  0  0  0  0  0  0
    0.0000   -3.4534    0.0000 C   0  0  0  0  0  0  0  0  0  0  0  0
    0.0000   -1.1491    0.0000 C   0  0  0  0  0  0  0  0  0  0  0  0
  1  2  1  0  0  0  0 
  2  3  1  0  0  0  0 
  3  4  1  0  0  0  0 
  4  5  1  0  0  0  0 
  4  6  1  0  0  0  0 
  5  7  1  0  0  0  0 
  6  8  1  0  0  0  0 
  7  9  1  0  0  0  0 
  8 10  1  0  0  0  0 
  9 11  1  0  0  0  0 
 10 12  1  0  0  0  0 
M  END
> <Name>
Ethanol, 2-(dibutylamino)-

> <Source>
DSSTox2DMolFile

> <Tox>
2.209

> <CAS>
102-81-8

$$$$

  CDK

 13 12  0  0  0  0  0  0  0  0999 V2000
   -0.8730   -1.4787   -0.5603 C   0  0  0  0  0  0  0  0  0  0  0  0
   -2.3680   -1.2563   -0.7657 C   0  0  0  0  0  0  0  0  0  0  0  0
   -0.2429   -0.3431    0.1736 N   0  0  0  0  0  0  0  0  0  0  0  0
   -3.1621   -1.4638    0.5214 C   0  0  0  0  0  0  0  0  0  0  0  0
    1.0702   -0.6744    0.7840 C   0  0  0  0  0  0  0  0  0  0  0  0
   -0.2312    0.9197   -0.6229 C   0  0  0  0  0  0  0  0  0  0  0  0
   -4.6163   -1.2726    0.3764 N   0  0  0  0  0  0  0  0  0  0  0  0
    2.1463   -1.1926   -0.1665 C   0  0  0  0  0  0  0  0  0  0  0  0
    0.0027    2.1274    0.2780 C   0  0  0  0  0  0  0  0  0  0  0  0
    3.4512   -1.4255    0.5776 C   0  0  0  0  0  0  0  0  0  0  0  0
    0.1547    3.3970   -0.5432 C   0  0  0  0  0  0  0  0  0  0  0  0
    4.5277   -1.9512   -0.3449 C   0  0  0  0  0  0  0  0  0  0  0  0
    0.3670    4.6044    0.3419 C   0  0  0  0  0  0  0  0  0  0  0  0
  1  2  1  0  0  0  0 
  1  3  1  0  0  0  0 
  2  4  1  0  0  0  0 
  3  5  1  0  0  0  0 
  3  6  1  0  0  0  0 
  4  7  1  0  0  0  0 
  5  8  1  0  0  0  0 
  6  9  1  0  0  0  0 
  8 10  1  0  0  0  0 
  9 11  1  0  0  0  0 
 10 12  1  0  0  0  0 
 11 13  1  0  0  0  0 
M  END
> <Name>
1,3-Propanediamine, N,N-dibutyl-

> <Source>
DougDB3DMolFile

> <Tox>
2.356

> <CAS>
102-83-0

$$$$

  CDK

 13 13  0  0  0  0  0  0  0  0999 V2000
    2.6629   -2.3084    0.0000 C   0  0  0  0  0  0  0  0  0  0  0  0
    3.9944   -2.3084    0.0000 C   0  0  0  0  0  0  0  0  0  0  0  0
    1.9972   -3.4583    0.0000 O   0  0  0  0  0  0  0  0  0  0  0  0
    1.9972   -1.1585    0.0000 O   0  0  0  0  0  0  0  0  0  0  0  0
    4.6514   -3.4583    0.0000 C   0  0  0  0  0  0  0  0  0  0  0  0
    0.6657   -1.1585    0.0000 C   0  0  0  0  0  0  0  0  0  0  0  0
    5.9829   -3.4583    0.0000 C   0  0  0  0  0  0  0  0  0  0  0  0
    0.0000   -0.0000    0.0000 C   0  0  0  0  0  0  0  0  0  0  0  0
    6.6486   -2.3084    0.0000 C   0  0  0  0  0  0  0  0  0  0  0  0
    6.6486   -4.6082    0.0000 C   0  0  0  0  0  0  0  0  0  0  0  0
    7.9801   -2.3084    0.0000 C   0  0  0  0  0  0  0  0  0  0  0  0
    7.9801   -4.6082    0.0000 C   0  0  0  0  0  0  0  0  0  0  0  0
    8.6458   -3.4583    0.0000 C   0  0  0  0  0  0  0  0  0  0  0  0
  1  2  1  0  0  0  0 
  1  3  2  0  0  0  0 
  1  4  1  0  0  0  0 
  2  5  2  0  0  0  0 
  4  6  1  0  0  0  0 
  5  7  1  0  0  0  0 
  6  8  1  0  0  0  0 
  7  9  1  0  0  0  0 
  7 10  2  0  0  0  0 
  9 11  2  0  0  0  0 
 12 10  1  0  0  0  0 
 11 13  1  0  0  0  0 
 13 12  2  0  0  0  0 
M  END
> <Name>
2-Propenoic acid, 3-phenyl-, ethyl ester

> <Source>
DSSTox2DMolFile

> <Tox>
1.644

> <CAS>
103-36-6

$$$$

  CDK

 14 14  0  0  0  0  0  0  0  0999 V2000
    1.3374    0.9303    0.1067 C   0  0  0  0  0  0  0  0  0  0  0  0
    0.0036    0.2671    0.0489 C   0  0  0  0  0  0  0  0  0  0  0  0
    2.3063   -0.0663   -0.2286 O   0  0  0  0  0  0  0  0  0  0  0  0
   -1.1332    0.9721    0.0742 C   0  0  0  0  0  0  0  0  0  0  0  0
    3.6251    0.2808   -0.2200 C   0  0  0  0  0  0  0  0  0  0  0  0
   -2.4505    0.3443    0.0384 C   0  0  0  0  0  0  0  0  0  0  0  0
    4.5413   -0.8694   -0.5780 C   0  0  0  0  0  0  0  0  0  0  0  0
    3.9401    1.4212    0.0578 O   0  0  0  0  0  0  0  0  0  0  0  0
   -3.5987    1.1429    0.0745 C   0  0  0  0  0  0  0  0  0  0  0  0
   -2.5858   -1.0459   -0.0321 C   0  0  0  0  0  0  0  0  0  0  0  0
    5.1148   -1.5022    0.6709 C   0  0  0  0  0  0  0  0  0  0  0  0
   -4.8574    0.5556    0.0404 C   0  0  0  0  0  0  0  0  0  0  0  0
   -3.8461   -1.6282   -0.0661 C   0  0  0  0  0  0  0  0  0  0  0  0
   -4.9837   -0.8283   -0.0298 C   0  0  0  0  0  0  0  0  0  0  0  0
  1  2  1  0  0  0  0 
  1  3  1  0  0  0  0 
  2  4  2  0  0  0  0 
  5  3  1  0  0  0  0 
  4  6  1  0  0  0  0 
  5  7  1  0  0  0  0 
  5  8  2  0  0  0  0 
  6  9  1  0  0  0  0 
  6 10  2  0  0  0  0 
  7 11  1  0  0  0  0 
  9 12  2  0  0  0  0 
 13 10  1  0  0  0  0 
 12 14  1  0  0  0  0 
 14 13  2  0  0  0  0 
M  END
> <Name>
2-Propen-1-ol, 3-phenyl-, propanoate

> <Source>
DougDB3DMolFile

> <Tox>
1.748

> <CAS>
103-56-0

$$$$

  CDK

  9  9  0  0  0  0  0  0  0  0999 V2000
    0.0000   -0.0000    0.0000 O   0  0  0  0  0  0  0  0  0  0  0  0
    1.3283   -0.0000    0.0000 C   0  0  0  0  0  0  0  0  0  0  0  0
    1.9925   -1.1548    0.0000 C   0  0  0  0  0  0  0  0  0  0  0  0
    3.3269   -1.1548    0.0000 N   0  0  0  0  0  0  0  0  0  0  0  0
    3.9910   -0.0000    0.0000 C   0  0  0  0  0  0  0  0  0  0  0  0
    3.9910   -2.3037    0.0000 C   0  0  0  0  0  0  0  0  0  0  0  0
    5.3194   -0.0000    0.0000 C   0  0  0  0  0  0  0  0  0  0  0  0
    5.3194   -2.3037    0.0000 C   0  0  0  0  0  0  0  0  0  0  0  0
    5.9836   -1.1548    0.0000 N   0  0  0  0  0  0  0  0  0  0  0  0
  1  2  1  0  0  0  0 
  2  3  1  0  0  0  0 
  3  4  1  0  0  0  0 
  4  5  1  0  0  0  0 
  4  6  1  0  0  0  0 
  5  7  1  0  0  0  0 
  8  6  1  0  0  0  0 
  7  9  1  0  0  0  0 
  9  8  1  0  0  0  0 
M  END
> <Name>
N-(2-Hydroxyethyl)piperazine

> <Source>
DSSTox2DMolFile

> <Tox>
1.397

> <CAS>
103-76-4

$$$$

  CDK

 13 13  0  0  0  0  0  0  0  0999 V2000
   -1.7658   -0.0079    0.1926 C   0  0  0  0  0  0  0  0  0  0  0  0
   -3.1739   -0.0145   -0.3897 C   0  0  0  0  0  0  0  0  0  0  0  0
   -1.4304    0.0087    1.3569 O   0  0  0  0  0  0  0  0  0  0  0  0
   -0.8050   -0.0232   -0.7891 O   0  0  0  0  0  0  0  0  0  0  0  0
   -3.9275   -1.2357    0.1111 C   0  0  0  0  0  0  0  0  0  0  0  0
   -3.8890    1.2689    0.0002 C   0  0  0  0  0  0  0  0  0  0  0  0
    0.5400   -0.0120   -0.4136 C   0  0  0  0  0  0  0  0  0  0  0  0
    1.2024    1.2107   -0.2748 C   0  0  0  0  0  0  0  0  0  0  0  0
    1.2257   -1.2256   -0.3118 C   0  0  0  0  0  0  0  0  0  0  0  0
    2.5706    1.2096   -0.0327 C   0  0  0  0  0  0  0  0  0  0  0  0
    2.5936   -1.2057   -0.0700 C   0  0  0  0  0  0  0  0  0  0  0  0
    3.2718    0.0067    0.0726 C   0  0  0  0  0  0  0  0  0  0  0  0
    4.7313    0.0148    0.3497 C   0  0  0  0  0  0  0  0  0  0  0  0
  1  2  1  0  0  0  0 
  1  3  2  0  0  0  0 
  1  4  1  0  0  0  0 
  2  5  1  0  0  0  0 
  2  6  1  0  0  0  0 
  4  7  1  0  0  0  0 
  7  8  1  0  0  0  0 
  7  9  2  0  0  0  0 
  8 10  2  0  0  0  0 
  9 11  1  0  0  0  0 
 12 10  1  0  0  0  0 
 12 11  2  0  0  0  0 
 12 13  1  0  0  0  0 
M  END
> <Name>
Propanoic acid, 2-methyl-, 4-methylphenyl ester

> <Source>
DougDB3DMolFile

> <Tox>
1.652

> <CAS>
103-93-5

$$$$

  CDK

 12 12  0  0  0  0  0  0  0  0999 V2000
   -2.9188    0.2169    0.1524 C   0  0  0  0  0  0  0  0  0  0  0  0
   -2.0522   -0.0834   -1.0496 C   0  0  0  0  0  0  0  0  0  0  0  0
   -3.2425    1.2976    0.6104 O   0  0  0  0  0  0  0  0  0  0  0  0
   -3.4107   -0.8668    0.7974 O   0  0  0  0  0  0  0  0  0  0  0  0
   -0.6107   -0.1290   -0.6591 C   0  0  0  0  0  0  0  0  0  0  0  0
   -0.0039   -1.3516   -0.3575 C   0  0  0  0  0  0  0  0  0  0  0  0
    0.1394    1.0450   -0.6104 C   0  0  0  0  0  0  0  0  0  0  0  0
    1.3366   -1.4047   -0.0095 C   0  0  0  0  0  0  0  0  0  0  0  0
    1.4849    1.0116   -0.2625 C   0  0  0  0  0  0  0  0  0  0  0  0
    2.0836   -0.2160    0.0380 C   0  0  0  0  0  0  0  0  0  0  0  0
    3.4043   -0.3973    0.3931 O   0  0  0  0  0  0  0  0  0  0  0  0
    4.2159    0.7476    0.4830 C   0  0  0  0  0  0  0  0  0  0  0  0
  1  2  1  0  0  0  0 
  1  3  2  0  0  0  0 
  1  4  1  0  0  0  0 
  2  5  1  0  0  0  0 
  5  6  1  0  0  0  0 
  5  7  2  0  0  0  0 
  6  8  2  0  0  0  0 
  9  7  1  0  0  0  0 
  8 10  1  0  0  0  0 
 10  9  2  0  0  0  0 
 10 11  1  0  0  0  0 
 11 12  1  0  0  0  0 
M  END
> <Name>
Benzeneacetic acid, 4-methoxy-

> <Source>
DougDB3DMolFile

> <Tox>
2.030

> <CAS>
104-01-8

$$$$

  CDK

 11 11  0  0  0  0  0  0  0  0999 V2000
    1.8403   -0.2118    0.0190 C   0  0  0  0  0  0  0  0  0  0  0  0
    1.0538   -1.3733   -0.0507 C   0  0  0  0  0  0  0  0  0  0  0  0
    1.2582    1.0500   -0.1302 C   0  0  0  0  0  0  0  0  0  0  0  0
    3.1822   -0.4552    0.2388 O   0  0  0  0  0  0  0  0  0  0  0  0
   -0.3096   -1.2570   -0.2705 C   0  0  0  0  0  0  0  0  0  0  0  0
   -0.1121    1.1447   -0.3495 C   0  0  0  0  0  0  0  0  0  0  0  0
    4.0363    0.6576    0.3268 C   0  0  0  0  0  0  0  0  0  0  0  0
   -0.9027   -0.0001   -0.4219 C   0  0  0  0  0  0  0  0  0  0  0  0
   -2.3745    0.1094   -0.6543 C   0  0  0  0  0  0  0  0  0  0  0  0
   -3.1406    0.0593    0.6612 C   0  0  0  0  0  0  0  0  0  0  0  0
   -4.6322    0.1577    0.4348 C   0  0  0  0  0  0  0  0  0  0  0  0
  1  2  1  0  0  0  0 
  1  3  2  0  0  0  0 
  1  4  1  0  0  0  0 
  2  5  2  0  0  0  0 
  6  3  1  0  0  0  0 
  4  7  1  0  0  0  0 
  5  8  1  0  0  0  0 
  8  6  2  0  0  0  0 
  8  9  1  0  0  0  0 
  9 10  1  0  0  0  0 
 10 11  1  0  0  0  0 
M  END
> <Name>
Benzene, 1-methoxy-4-propyl-

> <Source>
DougDB3DMolFile

> <Tox>
1.533

> <CAS>
104-45-0

$$$$

  CDK

 10 10  0  0  0  0  0  0  0  0999 V2000
    0.9729    0.6853   -0.4369 O   0  0  0  0  0  0  0  0  0  0  0  0
    2.2384    0.6354    0.0849 C   0  0  0  0  0  0  0  0  0  0  0  0
    0.4345   -0.6457   -0.5563 C   0  0  0  0  0  0  0  0  0  0  0  0
    2.7072   -0.7766    0.3465 C   0  0  0  0  0  0  0  0  0  0  0  0
    2.7577    1.7157    0.2327 O   0  0  0  0  0  0  0  0  0  0  0  0
    1.5288   -1.6382   -0.0976 C   0  0  0  0  0  0  0  0  0  0  0  0
   -0.8437   -0.7725    0.2753 C   0  0  0  0  0  0  0  0  0  0  0  0
   -1.9875    0.0429   -0.3052 C   0  0  0  0  0  0  0  0  0  0  0  0
   -3.2558   -0.1287    0.5161 C   0  0  0  0  0  0  0  0  0  0  0  0
   -4.3979    0.6786   -0.0582 C   0  0  0  0  0  0  0  0  0  0  0  0
  1  2  1  0  0  0  0 
  1  3  1  0  0  0  0 
  2  4  1  0  0  0  0 
  2  5  2  0  0  0  0 
  6  3  1  0  0  0  0 
  3  7  1  0  0  0  0 
  4  6  1  0  0  0  0 
  7  8  1  0  0  0  0 
  8  9  1  0  0  0  0 
  9 10  1  0  0  0  0 
M  END
> <Name>
2(3H)-Furanone, dihydro-5-butyl-

> <Source>
DougDB3DMolFile

> <Tox>
1.509

> <CAS>
104-50-7

$$$$

  CDK

 10 10  0  0  0  0  0  0  0  0999 V2000
    3.2480    0.4119    0.1915 C   0  0  0  0  0  0  0  0  0  0  0  0
    1.8310   -0.0576    0.1255 C   0  0  0  0  0  0  0  0  0  0  0  0
    4.1703   -0.5609   -0.2231 O   0  0  0  0  0  0  0  0  0  0  0  0
    0.7980    0.7889    0.0574 C   0  0  0  0  0  0  0  0  0  0  0  0
   -0.5906    0.3395    0.0235 C   0  0  0  0  0  0  0  0  0  0  0  0
   -0.9098   -1.0210    0.0790 C   0  0  0  0  0  0  0  0  0  0  0  0
   -1.6210    1.2813   -0.0659 C   0  0  0  0  0  0  0  0  0  0  0  0
   -2.2354   -1.4333    0.0452 C   0  0  0  0  0  0  0  0  0  0  0  0
   -2.9458    0.8639   -0.0994 C   0  0  0  0  0  0  0  0  0  0  0  0
   -3.2554   -0.4916   -0.0441 C   0  0  0  0  0  0  0  0  0  0  0  0
  1  2  1  0  0  0  0 
  1  3  1  0  0  0  0 
  2  4  2  0  0  0  0 
  4  5  1  0  0  0  0 
  5  6  1  0  0  0  0 
  5  7  2  0  0  0  0 
  6  8  2  0  0  0  0 
  9  7  1  0  0  0  0 
  8 10  1  0  0  0  0 
 10  9  2  0  0  0  0 
M  END
> <Name>
2-Propen-1-ol, 3-phenyl-

> <Source>
DougDB3DMolFile

> <Tox>
1.827

> <CAS>
104-54-1

$$$$

  CDK

 12 12  0  0  0  0  0  0  0  0999 V2000
    2.9793    1.7379    0.0000 C   0  0  0  0  0  0  0  0  0  0  0  0
    3.4759    2.5821    0.0000 C   0  0  0  0  0  0  0  0  0  0  0  0
    2.0359    1.7379    0.0000 C   0  0  0  0  0  0  0  0  0  0  0  0
    4.5186    2.5821    0.0000 C   0  0  0  0  0  0  0  0  0  0  0  0
    1.5393    0.8938    0.0000 O   0  0  0  0  0  0  0  0  0  0  0  0
    5.0152    3.4759    0.0000 C   0  0  0  0  0  0  0  0  0  0  0  0
    5.0152    1.7379    0.0000 C   0  0  0  0  0  0  0  0  0  0  0  0
    0.4966    0.8938    0.0000 C   0  0  0  0  0  0  0  0  0  0  0  0
    6.0083    3.4759    0.0000 C   0  0  0  0  0  0  0  0  0  0  0  0
    6.0083    1.7379    0.0000 C   0  0  0  0  0  0  0  0  0  0  0  0
    0.0000    0.0000    0.0000 O   0  0  0  0  0  0  0  0  0  0  0  0
    6.5048    2.5821    0.0000 C   0  0  0  0  0  0  0  0  0  0  0  0
  1  2  2  0  0  0  0 
  1  3  1  0  0  0  0 
  2  4  1  0  0  0  0 
  3  5  1  0  0  0  0 
  6  4  2  0  0  0  0 
  4  7  1  0  0  0  0 
  5  8  1  0  0  0  0 
  9  6  1  0  0  0  0 
  7 10  2  0  0  0  0 
  8 11  2  0  0  0  0 
 12  9  2  0  0  0  0 
 10 12  1  0  0  0  0 
M  END
> <Name>
2-Propen-1-ol, 3-phenyl-, formate

> <Source>
NIST2DMolFile

> <Tox>
1.748

> <CAS>
104-65-4

$$$$

  CDK

 13 13  0  0  0  0  0  0  0  0999 V2000
    9.9799   -1.0749    0.0000 C   0  0  0  0  0  0  0  0  0  0  0  0
    9.2105   -2.1499    0.0000 O   0  0  0  0  0  0  0  0  0  0  0  0
   11.3151   -1.0749    0.0000 O   0  0  0  0  0  0  0  0  0  0  0  0
    9.2105   -0.0000    0.0000 C   0  0  0  0  0  0  0  0  0  0  0  0
    7.9545   -1.7312    0.0000 C   0  0  0  0  0  0  0  0  0  0  0  0
    7.9545   -0.3960    0.0000 C   0  0  0  0  0  0  0  0  0  0  0  0
    6.8796   -2.5119    0.0000 C   0  0  0  0  0  0  0  0  0  0  0  0
    5.6575   -1.9688    0.0000 C   0  0  0  0  0  0  0  0  0  0  0  0
    4.5826   -2.7609    0.0000 C   0  0  0  0  0  0  0  0  0  0  0  0
    3.3606   -2.2064    0.0000 C   0  0  0  0  0  0  0  0  0  0  0  0
    2.2970   -2.9985    0.0000 C   0  0  0  0  0  0  0  0  0  0  0  0
    1.0749   -2.4554    0.0000 C   0  0  0  0  0  0  0  0  0  0  0  0
    0.0000   -3.2361    0.0000 C   0  0  0  0  0  0  0  0  0  0  0  0
  1  2  1  0  0  0  0 
  1  3  2  0  0  0  0 
  1  4  1  0  0  0  0 
  2  5  1  0  0  0  0 
  4  6  1  0  0  0  0 
  5  7  1  0  0  0  0 
  5  6  1  0  0  0  0 
  7  8  1  0  0  0  0 
  8  9  1  0  0  0  0 
  9 10  1  0  0  0  0 
 11 10  1  0  0  0  0 
 12 11  1  0  0  0  0 
 12 13  1  0  0  0  0 
M  END
> <Name>
Undecanoic acid, 4-hydroxy-, gamma-lactone

> <Source>
DSSTox2DMolFile

> <Tox>
0.998

> <CAS>
104-67-6

$$$$

  CDK

  9  9  0  0  0  0  0  0  0  0999 V2000
    0.0000   -1.1509    0.0000 N   0  0  0  0  0  0  0  0  0  0  0  0
    1.3305   -1.1509    0.0000 C   0  0  0  0  0  0  0  0  0  0  0  0
    2.6611   -1.1509    0.0000 C   0  0  0  0  0  0  0  0  0  0  0  0
    3.3263   -0.0000    0.0000 C   0  0  0  0  0  0  0  0  0  0  0  0
    3.3263   -2.3018    0.0000 C   0  0  0  0  0  0  0  0  0  0  0  0
    4.6568   -0.0000    0.0000 C   0  0  0  0  0  0  0  0  0  0  0  0
    4.6568   -2.3018    0.0000 C   0  0  0  0  0  0  0  0  0  0  0  0
    5.3221   -1.1509    0.0000 C   0  0  0  0  0  0  0  0  0  0  0  0
    6.6526   -1.1509    0.0000 C   0  0  0  0  0  0  0  0  0  0  0  0
  1  2  3  0  0  0  0 
  2  3  1  0  0  0  0 
  3  4  2  0  0  0  0 
  3  5  1  0  0  0  0 
  4  6  1  0  0  0  0 
  7  5  2  0  0  0  0 
  6  8  2  0  0  0  0 
  8  7  1  0  0  0  0 
  8  9  1  0  0  0  0 
M  END
> <Name>
Benzonitrile, 4-methyl-

> <Source>
DSSTox2DMolFile

> <Tox>
1.489

> <CAS>
104-85-8

$$$$

  CDK

 10 10  0  0  0  0  0  0  0  0999 V2000
    4.6448   -1.1562    0.0000 C   0  0  0  0  0  0  0  0  0  0  0  0
    3.9869   -2.3058    0.0000 C   0  0  0  0  0  0  0  0  0  0  0  0
    3.9869   -0.0000    0.0000 C   0  0  0  0  0  0  0  0  0  0  0  0
    5.9737   -1.1562    0.0000 C   0  0  0  0  0  0  0  0  0  0  0  0
    2.6579   -2.3058    0.0000 C   0  0  0  0  0  0  0  0  0  0  0  0
    2.6579   -0.0000    0.0000 C   0  0  0  0  0  0  0  0  0  0  0  0
    6.6449   -0.0000    0.0000 O   0  0  0  0  0  0  0  0  0  0  0  0
    1.9868   -1.1562    0.0000 C   0  0  0  0  0  0  0  0  0  0  0  0
    0.6578   -1.1562    0.0000 C   0  0  0  0  0  0  0  0  0  0  0  0
    0.0000   -2.3058    0.0000 O   0  0  0  0  0  0  0  0  0  0  0  0
  1  2  1  0  0  0  0 
  1  3  1  0  0  0  0 
  1  4  1  0  0  0  0 
  2  5  1  0  0  0  0 
  6  3  1  0  0  0  0 
  4  7  1  0  0  0  0 
  5  8  1  0  0  0  0 
  8  6  1  0  0  0  0 
  8  9  1  0  0  0  0 
  9 10  1  0  0  0  0 
M  END
> <Name>
Cyclohex-1,4-ylenedimethanol

> <Source>
DSSTox2DMolFile

> <Tox>
1.654

> <CAS>
105-08-8

$$$$

  CDK

  7  6  0  0  0  0  0  0  0  0999 V2000
    4.1533    1.5729    1.8947 C   0  0  0  0  0  0  0  0  0  0  0  0
    2.8078    2.2505    1.5863 C   0  0  0  0  0  0  0  0  0  0  0  0
    5.2980    2.5732    1.9269 C   0  0  0  0  0  0  0  0  0  0  0  0
    1.7040    1.3656    1.9404 C   0  0  0  0  0  0  0  0  0  0  0  0
    2.7976    2.5772    0.2062 O   0  0  0  0  0  0  0  0  0  0  0  0
    6.6054    1.8967    2.2733 C   0  0  0  0  0  0  0  0  0  0  0  0
    0.8043    0.6443    2.2387 C   0  0  0  0  0  0  0  0  0  0  0  0
  1  2  1  0  0  0  0 
  1  3  1  0  0  0  0 
  2  4  1  0  0  0  0 
  2  5  1  0  0  0  0 
  3  6  1  0  0  0  0 
  4  7  3  0  0  0  0 
M  END
> <Name>
1-Hexyn-3-ol

> <Source>
NIST3DMolFile

> <Tox>
2.891

> <CAS>
105-31-7

$$$$

  CDK

  8  7  0  0  0  0  0  0  0  0999 V2000
    2.2736   -1.3229    0.0000 C   0  0  0  0  0  0  0  0  0  0  0  0
    3.4362   -2.0044    0.0000 C   0  0  0  0  0  0  0  0  0  0  0  0
    1.1454   -2.0044    0.0000 O   0  0  0  0  0  0  0  0  0  0  0  0
    2.2736   -0.0000    0.0000 O   0  0  0  0  0  0  0  0  0  0  0  0
    4.5644   -1.3229    0.0000 C   0  0  0  0  0  0  0  0  0  0  0  0
    0.0000   -1.3229    0.0000 C   0  0  0  0  0  0  0  0  0  0  0  0
    5.7270   -2.0044    0.0000 C   0  0  0  0  0  0  0  0  0  0  0  0
    4.5644   -0.0000    0.0000 O   0  0  0  0  0  0  0  0  0  0  0  0
  1  2  1  0  0  0  0 
  1  3  1  0  0  0  0 
  1  4  2  0  0  0  0 
  2  5  1  0  0  0  0 
  3  6  1  0  0  0  0 
  5  7  1  0  0  0  0 
  5  8  2  0  0  0  0 
M  END
> <Name>
Butanoic acid, 3-oxo-, methyl ester

> <Source>
DSSTox2DMolFile

> <Tox>
1.556

> <CAS>
105-45-3

$$$$

  CDK

  8  7  0  0  0  0  0  0  0  0999 V2000
    4.0679    2.3175    1.9376 O   0  0  0  0  0  0  0  0  0  0  0  0
    2.8118    2.1684    1.2492 C   0  0  0  0  0  0  0  0  0  0  0  0
    5.2360    2.0577    1.2844 C   0  0  0  0  0  0  0  0  0  0  0  0
    1.8868    3.2340    1.8586 C   0  0  0  0  0  0  0  0  0  0  0  0
    2.2819    0.7563    1.4737 C   0  0  0  0  0  0  0  0  0  0  0  0
    6.4397    2.3020    2.1531 C   0  0  0  0  0  0  0  0  0  0  0  0
    5.2279    1.6716    0.1317 O   0  0  0  0  0  0  0  0  0  0  0  0
    0.6214    3.4022    1.0482 C   0  0  0  0  0  0  0  0  0  0  0  0
  1  2  1  0  0  0  0 
  1  3  1  0  0  0  0 
  2  4  1  0  0  0  0 
  2  5  1  0  0  0  0 
  3  6  1  0  0  0  0 
  3  7  2  0  0  0  0 
  4  8  1  0  0  0  0 
M  END
> <Name>
Acetic acid, 1-methylpropyl ester

> <Source>
NIST3DMolFile

> <Tox>
1.560

> <CAS>
105-46-4

$$$$

  CDK

  8  7  0  0  0  0  0  0  0  0999 V2000
   -0.0264    0.3284   -0.0002 C   0  0  0  0  0  0  0  0  0  0  0  0
    1.2066   -0.5452   -0.0003 C   0  0  0  0  0  0  0  0  0  0  0  0
   -0.1035    1.5411   -0.0004 O   0  0  0  0  0  0  0  0  0  0  0  0
   -1.1757   -0.4100    0.0002 O   0  0  0  0  0  0  0  0  0  0  0  0
    2.4951    0.2611    0.0008 C   0  0  0  0  0  0  0  0  0  0  0  0
   -2.4286    0.2763    0.0004 C   0  0  0  0  0  0  0  0  0  0  0  0
    3.7026   -0.6494   -0.0002 C   0  0  0  0  0  0  0  0  0  0  0  0
   -3.5046   -0.7925   -0.0001 C   0  0  0  0  0  0  0  0  0  0  0  0
  1  2  1  0  0  0  0 
  1  3  2  0  0  0  0 
  1  4  1  0  0  0  0 
  2  5  1  0  0  0  0 
  4  6  1  0  0  0  0 
  5  7  1  0  0  0  0 
  6  8  1  0  0  0  0 
M  END
> <Name>
Butanoic acid, ethyl ester

> <Source>
DougDB3DMolFile

> <Tox>
0.951

> <CAS>
105-54-4

$$$$

  CDK

  8  7  0  0  0  0  0  0  0  0999 V2000
    3.4577   -0.0000    0.0000 S   0  0  0  0  0  0  0  0  0  0  0  0
    3.4577   -1.3312    0.0000 C   0  0  0  0  0  0  0  0  0  0  0  0
    4.6103   -1.9939    0.0000 N   0  0  0  0  0  0  0  0  0  0  0  0
    2.3051   -1.9939    0.0000 N   0  0  0  0  0  0  0  0  0  0  0  0
    5.7628   -1.3312    0.0000 C   0  0  0  0  0  0  0  0  0  0  0  0
    1.1526   -1.3312    0.0000 C   0  0  0  0  0  0  0  0  0  0  0  0
    5.7628   -0.0000    0.0000 C   0  0  0  0  0  0  0  0  0  0  0  0
    0.0000   -1.9939    0.0000 C   0  0  0  0  0  0  0  0  0  0  0  0
  1  2  2  0  0  0  0 
  2  3  1  0  0  0  0 
  2  4  1  0  0  0  0 
  3  5  1  0  0  0  0 
  4  6  1  0  0  0  0 
  5  7  1  0  0  0  0 
  6  8  1  0  0  0  0 
M  END
> <Name>
Urea, 1,3-diethyl-2-thio-

> <Source>
DSSTox2DMolFile

> <Tox>
2.622

> <CAS>
105-55-5

$$$$

  CDK

  8  7  0  0  0  0  0  0  0  0999 V2000
    3.4577   -1.3312    0.0000 N   0  0  0  0  0  0  0  0  0  0  0  0
    3.4577   -0.0000    0.0000 C   0  0  0  0  0  0  0  0  0  0  0  0
    4.6103   -1.9939    0.0000 C   0  0  0  0  0  0  0  0  0  0  0  0
    2.3051   -1.9939    0.0000 C   0  0  0  0  0  0  0  0  0  0  0  0
    5.7628   -1.3312    0.0000 C   0  0  0  0  0  0  0  0  0  0  0  0
    1.1526   -1.3312    0.0000 C   0  0  0  0  0  0  0  0  0  0  0  0
    5.7628   -0.0000    0.0000 O   0  0  0  0  0  0  0  0  0  0  0  0
    0.0000   -1.9939    0.0000 O   0  0  0  0  0  0  0  0  0  0  0  0
  1  2  1  0  0  0  0 
  1  3  1  0  0  0  0 
  1  4  1  0  0  0  0 
  3  5  1  0  0  0  0 
  4  6  1  0  0  0  0 
  5  7  1  0  0  0  0 
  6  8  1  0  0  0  0 
M  END
> <Name>
Ethanol, 2,2'-(methylimino)bis-

> <Source>
DSSTox2DMolFile

> <Tox>
1.787

> <CAS>
105-59-9

$$$$

  CDK

 16 15  0  0  0  0  0  0  0  0999 V2000
   12.6865   -3.3366    0.0000 C   0  0  0  0  0  0  0  0  0  0  0  0
   11.5320   -3.9963    0.0000 C   0  0  0  0  0  0  0  0  0  0  0  0
   10.3776   -3.3366    0.0000 C   0  0  0  0  0  0  0  0  0  0  0  0
    9.2231   -3.9963    0.0000 C   0  0  0  0  0  0  0  0  0  0  0  0
    8.0686   -3.3366    0.0000 O   0  0  0  0  0  0  0  0  0  0  0  0
    6.9142   -3.9963    0.0000 C   0  0  0  0  0  0  0  0  0  0  0  0
    6.9142   -5.3283    0.0000 O   0  0  0  0  0  0  0  0  0  0  0  0
    5.7724   -3.3366    0.0000 C   0  0  0  0  0  0  0  0  0  0  0  0
    4.6179   -3.9963    0.0000 C   0  0  0  0  0  0  0  0  0  0  0  0
    3.4634   -3.3366    0.0000 C   0  0  0  0  0  0  0  0  0  0  0  0
    3.4634   -2.0045    0.0000 O   0  0  0  0  0  0  0  0  0  0  0  0
    2.3089   -3.9963    0.0000 O   0  0  0  0  0  0  0  0  0  0  0  0
    1.1545   -3.3366    0.0000 C   0  0  0  0  0  0  0  0  0  0  0  0
    1.1545   -2.0045    0.0000 C   0  0  0  0  0  0  0  0  0  0  0  0
    0.0000   -1.3321    0.0000 C   0  0  0  0  0  0  0  0  0  0  0  0
    0.0000   -0.0000    0.0000 C   0  0  0  0  0  0  0  0  0  0  0  0
  1  2  1  0  0  0  0 
  2  3  1  0  0  0  0 
  3  4  1  0  0  0  0 
  4  5  1  0  0  0  0 
  5  6  1  0  0  0  0 
  6  7  2  0  0  0  0 
  6  8  1  0  0  0  0 
  8  9  2  0  0  0  0 
  9 10  1  0  0  0  0 
 10 11  2  0  0  0  0 
 10 12  1  0  0  0  0 
 12 13  1  0  0  0  0 
 13 14  1  0  0  0  0 
 14 15  1  0  0  0  0 
 15 16  1  0  0  0  0 
M  END
> <Name>
2-Butenedioic acid (E)-, dibutyl ester (9CI)

> <Source>
DSSTox2DMolFile

> <Tox>
1.428

> <CAS>
105-75-9

$$$$

  CDK

 17 16  0  0  0  0  0  0  0  0999 V2000
    4.6055   -3.9953    0.0000 N   0  0  0  0  0  0  0  0  0  0  0  0
    3.4541   -3.3275    0.0000 C   0  0  0  0  0  0  0  0  0  0  0  0
    5.7568   -3.3275    0.0000 C   0  0  0  0  0  0  0  0  0  0  0  0
    3.4541   -2.0034    0.0000 C   0  0  0  0  0  0  0  0  0  0  0  0
    6.9082   -3.9953    0.0000 C   0  0  0  0  0  0  0  0  0  0  0  0
    2.3027   -1.3356    0.0000 C   0  0  0  0  0  0  0  0  0  0  0  0
    4.6055   -1.3356    0.0000 C   0  0  0  0  0  0  0  0  0  0  0  0
    8.0596   -3.3275    0.0000 C   0  0  0  0  0  0  0  0  0  0  0  0
    6.9082   -5.3193    0.0000 C   0  0  0  0  0  0  0  0  0  0  0  0
    1.1514   -2.0034    0.0000 C   0  0  0  0  0  0  0  0  0  0  0  0
    4.6055   -0.0000    0.0000 C   0  0  0  0  0  0  0  0  0  0  0  0
    9.2110   -3.9953    0.0000 C   0  0  0  0  0  0  0  0  0  0  0  0
    8.0596   -5.9871    0.0000 C   0  0  0  0  0  0  0  0  0  0  0  0
    1.1514   -3.3275    0.0000 C   0  0  0  0  0  0  0  0  0  0  0  0
   10.3623   -3.3275    0.0000 C   0  0  0  0  0  0  0  0  0  0  0  0
    0.0000   -3.9953    0.0000 C   0  0  0  0  0  0  0  0  0  0  0  0
   11.5137   -3.9953    0.0000 C   0  0  0  0  0  0  0  0  0  0  0  0
  1  2  1  0  0  0  0 
  1  3  1  0  0  0  0 
  2  4  1  0  0  0  0 
  3  5  1  0  0  0  0 
  4  6  1  0  0  0  0 
  4  7  1  0  0  0  0 
  5  8  1  0  0  0  0 
  5  9  1  0  0  0  0 
  6 10  1  0  0  0  0 
  7 11  1  0  0  0  0 
  8 12  1  0  0  0  0 
  9 13  1  0  0  0  0 
 10 14  1  0  0  0  0 
 12 15  1  0  0  0  0 
 14 16  1  0  0  0  0 
 15 17  1  0  0  0  0 
M  END
> <Name>
1-Hexanamine, 2-ethyl-N-(2-ethylhexyl)-

> <Source>
DSSTox2DMolFile

> <Tox>
2.168

> <CAS>
106-20-7

$$$$

  CDK

 11 10  0  0  0  0  0  0  0  0999 V2000
    2.6651   -4.6056    0.0000 C   0  0  0  0  0  0  0  0  0  0  0  0
    4.0007   -4.6056    0.0000 C   0  0  0  0  0  0  0  0  0  0  0  0
    1.9884   -5.7615    0.0000 O   0  0  0  0  0  0  0  0  0  0  0  0
    4.6535   -3.4497    0.0000 C   0  0  0  0  0  0  0  0  0  0  0  0
    4.0007   -2.2938    0.0000 C   0  0  0  0  0  0  0  0  0  0  0  0
    5.9891   -3.4497    0.0000 C   0  0  0  0  0  0  0  0  0  0  0  0
    2.6651   -2.2938    0.0000 C   0  0  0  0  0  0  0  0  0  0  0  0
    1.9884   -1.1559    0.0000 C   0  0  0  0  0  0  0  0  0  0  0  0
    0.6588   -1.1559    0.0000 C   0  0  0  0  0  0  0  0  0  0  0  0
    0.0000   -0.0000    0.0000 C   0  0  0  0  0  0  0  0  0  0  0  0
    0.0000   -2.2938    0.0000 C   0  0  0  0  0  0  0  0  0  0  0  0
  1  2  1  0  0  0  0 
  1  3  1  0  0  0  0 
  2  4  2  0  0  0  0 
  4  5  1  0  0  0  0 
  4  6  1  0  0  0  0 
  5  7  1  0  0  0  0 
  7  8  1  0  0  0  0 
  8  9  2  0  0  0  0 
  9 10  1  0  0  0  0 
  9 11  1  0  0  0  0 
M  END
> <Name>
2,6-Octadien-1-ol, 3,7-dimethyl-, (2Z)-

> <Source>
DSSTox2DMolFile

> <Tox>
1.535

> <CAS>
106-25-2

$$$$

  CDK

  8  8  0  0  0  0  0  0  0  0999 V2000
    0.0000   -1.1545    0.0000 N   0  0  0  0  0  0  0  0  0  0  0  0
    1.3300   -1.1545    0.0000 C   0  0  0  0  0  0  0  0  0  0  0  0
    1.9950   -0.0000    0.0000 C   0  0  0  0  0  0  0  0  0  0  0  0
    1.9950   -2.3036    0.0000 C   0  0  0  0  0  0  0  0  0  0  0  0
    3.3250   -0.0000    0.0000 C   0  0  0  0  0  0  0  0  0  0  0  0
    3.3250   -2.3036    0.0000 C   0  0  0  0  0  0  0  0  0  0  0  0
    3.9900   -1.1545    0.0000 C   0  0  0  0  0  0  0  0  0  0  0  0
    5.3201   -1.1545    0.0000 Cl  0  0  0  0  0  0  0  0  0  0  0  0
  1  2  1  0  0  0  0 
  2  3  2  0  0  0  0 
  2  4  1  0  0  0  0 
  3  5  1  0  0  0  0 
  6  4  2  0  0  0  0 
  5  7  2  0  0  0  0 
  7  6  1  0  0  0  0 
  7  8  1  0  0  0  0 
M  END
> <Name>
Benzenamine, 4-chloro-

> <Source>
DSSTox2DMolFile

> <Tox>
2.629

> <CAS>
106-47-8

$$$$

  CDK

  9  8  0  0  0  0  0  0  0  0999 V2000
    6.9045   -1.9954    0.0000 C   0  0  0  0  0  0  0  0  0  0  0  0
    5.7514   -1.3257    0.0000 C   0  0  0  0  0  0  0  0  0  0  0  0
    4.6053   -1.9954    0.0000 C   0  0  0  0  0  0  0  0  0  0  0  0
    4.6053   -3.3210    0.0000 O   0  0  0  0  0  0  0  0  0  0  0  0
    3.4522   -1.3257    0.0000 O   0  0  0  0  0  0  0  0  0  0  0  0
    2.2992   -1.9954    0.0000 C   0  0  0  0  0  0  0  0  0  0  0  0
    1.1530   -1.3257    0.0000 C   0  0  0  0  0  0  0  0  0  0  0  0
    0.0000   -1.9954    0.0000 C   0  0  0  0  0  0  0  0  0  0  0  0
    1.1530   -0.0000    0.0000 C   0  0  0  0  0  0  0  0  0  0  0  0
  1  2  2  0  0  0  0 
  2  3  1  0  0  0  0 
  3  4  2  0  0  0  0 
  3  5  1  0  0  0  0 
  5  6  1  0  0  0  0 
  6  7  1  0  0  0  0 
  7  8  1  0  0  0  0 
  7  9  1  0  0  0  0 
M  END
> <Name>
2-Propenoic acid, 2-methylpropyl ester

> <Source>
DSSTox2DMolFile

> <Tox>
1.309

> <CAS>
106-63-8

$$$$

  CDK

  9  8  0  0  0  0  0  0  0  0999 V2000
    2.8431    0.7879   -0.2288 C   0  0  0  0  0  0  0  0  0  0  0  0
    1.6714   -0.1392    0.1746 C   0  0  0  0  0  0  0  0  0  0  0  0
    3.9923    0.3357    0.4509 O   0  0  0  0  0  0  0  0  0  0  0  0
    0.3511    0.4391   -0.3535 C   0  0  0  0  0  0  0  0  0  0  0  0
    1.8222   -1.4284   -0.3889 O   0  0  0  0  0  0  0  0  0  0  0  0
   -0.8570   -0.2366    0.2749 C   0  0  0  0  0  0  0  0  0  0  0  0
   -2.1514    0.3739   -0.2374 C   0  0  0  0  0  0  0  0  0  0  0  0
   -3.3563   -0.3198    0.3937 C   0  0  0  0  0  0  0  0  0  0  0  0
   -4.5174    0.3012   -0.1094 O   0  0  0  0  0  0  0  0  0  0  0  0
  1  2  1  0  0  0  0 
  1  3  1  0  0  0  0 
  2  4  1  0  0  0  0 
  2  5  1  0  0  0  0 
  4  6  1  0  0  0  0 
  6  7  1  0  0  0  0 
  7  8  1  0  0  0  0 
  8  9  1  0  0  0  0 
M  END
> <Name>
1,2,6-Hexanetriol

> <Source>
DougDB3DMolFile

> <Tox>
0.937

> <CAS>
106-69-4

$$$$

  CDK

  5  5  0  0  0  0  0  0  0  0999 V2000
    0.0000   -1.1519    0.0000 Cl  0  0  0  0  0  0  0  0  0  0  0  0
    1.1519   -1.8168    0.0000 C   0  0  0  0  0  0  0  0  0  0  0  0
    2.3037   -1.1519    0.0000 C   0  0  0  0  0  0  0  0  0  0  0  0
    2.9687   -0.0000    0.0000 C   0  0  0  0  0  0  0  0  0  0  0  0
    3.6336   -1.1519    0.0000 O   0  0  0  0  0  0  0  0  0  0  0  0
  1  2  1  0  0  0  0 
  2  3  1  0  0  0  0 
  3  4  1  0  0  0  0 
  3  5  1  0  0  0  0 
  4  5  1  0  0  0  0 
M  END
> <Name>
Propane, 1-chloro-2,3-epoxy-

> <Source>
DSSTox2DMolFile

> <Tox>
3.012

> <CAS>
106-89-8

$$$$

  CDK

  4  3  0  0  0  0  0  0  0  0999 V2000
    0.8495    0.4997    0.0000 C   0  0  0  0  0  0  0  0  0  0  0  0
    0.0000    0.0000    0.0000 C   0  0  0  0  0  0  0  0  0  0  0  0
    1.7489    0.0000    0.0000 C   0  0  0  0  0  0  0  0  0  0  0  0
    2.5984    0.4997    0.0000 Br  0  0  0  0  0  0  0  0  0  0  0  0
  1  2  3  0  0  0  0 
  1  3  1  0  0  0  0 
  3  4  1  0  0  0  0 
M  END
> <Name>
1-Propyne, 3-bromo-

> <Source>
NIST2DMolFile

> <Tox>
3.351

> <CAS>
106-96-7

$$$$

  CDK

  4  3  0  0  0  0  0  0  0  0999 V2000
    0.0000   -0.0000    0.0000 N   0  0  0  0  0  0  0  0  0  0  0  0
    1.1513   -0.6638    0.0000 C   0  0  0  0  0  0  0  0  0  0  0  0
    2.3061   -0.0000    0.0000 C   0  0  0  0  0  0  0  0  0  0  0  0
    3.4575   -0.6638    0.0000 C   0  0  0  0  0  0  0  0  0  0  0  0
  1  2  1  0  0  0  0 
  2  3  1  0  0  0  0 
  3  4  2  0  0  0  0 
M  END
> <Name>
2-Propen-1-amine

> <Source>
DSSTox2DMolFile

> <Tox>
2.748

> <CAS>
107-11-9

$$$$

  CDK

  4  3  0  0  0  0  0  0  0  0999 V2000
    0.0000   -1.1508    0.0000 N   0  0  0  0  0  0  0  0  0  0  0  0
    1.3304   -1.1508    0.0000 C   0  0  0  0  0  0  0  0  0  0  0  0
    2.6608   -1.1508    0.0000 C   0  0  0  0  0  0  0  0  0  0  0  0
    3.3260   -0.0000    0.0000 O   0  0  0  0  0  0  0  0  0  0  0  0
  1  2  3  0  0  0  0 
  2  3  1  0  0  0  0 
  3  4  1  0  0  0  0 
M  END
> <Name>
Acetonitrile, hydroxy-

> <Source>
DSSTox2DMolFile

> <Tox>
3.853

> <CAS>
107-16-4

$$$$

  CDK

  4  3  0  0  0  0  0  0  0  0999 V2000
    0.0000   -0.0000    0.0000 O   0  0  0  0  0  0  0  0  0  0  0  0
    1.1513   -0.6638    0.0000 C   0  0  0  0  0  0  0  0  0  0  0  0
    2.3061   -0.0000    0.0000 C   0  0  0  0  0  0  0  0  0  0  0  0
    3.4575   -0.6638    0.0000 Cl  0  0  0  0  0  0  0  0  0  0  0  0
  1  2  2  0  0  0  0 
  2  3  1  0  0  0  0 
  3  4  1  0  0  0  0 
M  END
> <Name>
Acetaldehyde, chloro-

> <Source>
DSSTox2DMolFile

> <Tox>
2.945

> <CAS>
107-20-0

$$$$

  CDK

  4  3  0  0  0  0  0  0  0  0999 V2000
    0.0000   -0.0000    0.0000 O   0  0  0  0  0  0  0  0  0  0  0  0
    1.1513   -0.6638    0.0000 C   0  0  0  0  0  0  0  0  0  0  0  0
    2.3061   -0.0000    0.0000 C   0  0  0  0  0  0  0  0  0  0  0  0
    3.4575   -0.6638    0.0000 O   0  0  0  0  0  0  0  0  0  0  0  0
  1  2  2  0  0  0  0 
  2  3  1  0  0  0  0 
  3  4  2  0  0  0  0 
M  END
> <Name>
Glyoxal, 29.2%

> <Source>
DSSTox2DMolFile

> <Tox>
2.463

> <CAS>
107-22-2

$$$$

  CDK

  8  7  0  0  0  0  0  0  0  0999 V2000
   -0.6356   -0.2128    2.5971 P   0  0  0  0  0  0  0  0  0  0  0  0
   -1.7811    0.8226    2.3014 F   0  0  0  0  0  0  0  0  0  0  0  0
    0.6576    0.4535    1.8854 O   0  0  0  0  0  0  0  0  0  0  0  0
   -0.4697   -0.3787    4.0811 O   0  0  0  0  0  0  0  0  0  0  0  0
   -0.8801   -1.7563    1.7416 C   0  0  0  0  0  0  0  0  0  0  0  0
    0.6222    0.7466    0.4999 C   0  0  0  0  0  0  0  0  0  0  0  0
   -0.5065    1.7284    0.2245 C   0  0  0  0  0  0  0  0  0  0  0  0
    1.9723    1.3001    0.0703 C   0  0  0  0  0  0  0  0  0  0  0  0
  1  2  1  0  0  0  0 
  1  3  1  0  0  0  0 
  1  4  2  0  0  0  0 
  1  5  1  0  0  0  0 
  3  6  1  0  0  0  0 
  6  7  1  0  0  0  0 
  6  8  1  0  0  0  0 
M  END
> <Name>
Phosphonofluoridic acid, methyl-, 1-methylethyl ester

> <Source>
Chemidplus3DMolFile

> <Tox>
5.406

> <CAS>
107-44-8

$$$$

  CDK

  9  8  0  0  0  0  0  0  0  0999 V2000
    1.7390    0.7161    0.0000 O   0  0  0  0  0  0  0  0  0  0  0  0
    0.9718    1.4321    0.0000 C   0  0  0  0  0  0  0  0  0  0  0  0
    2.6597    0.9718    0.0000 C   0  0  0  0  0  0  0  0  0  0  0  0
    0.0000    1.1764    0.0000 O   0  0  0  0  0  0  0  0  0  0  0  0
    1.2787    2.3528    0.0000 C   0  0  0  0  0  0  0  0  0  0  0  0
    3.6315    1.2275    0.0000 C   0  0  0  0  0  0  0  0  0  0  0  0
    2.9154    0.0000    0.0000 C   0  0  0  0  0  0  0  0  0  0  0  0
    2.4039    1.9947    0.0000 C   0  0  0  0  0  0  0  0  0  0  0  0
    2.1993    2.6085    0.0000 Cl  0  0  0  0  0  0  0  0  0  0  0  0
  1  2  1  0  0  0  0 
  1  3  1  0  0  0  0 
  2  4  2  0  0  0  0 
  2  5  1  0  0  0  0 
  3  6  1  0  0  0  0 
  3  7  1  0  0  0  0 
  3  8  1  0  0  0  0 
  5  9  1  0  0  0  0 
M  END
> <Name>
Acetic acid, chloro-, 1,1-dimethylethyl ester

> <Source>
NIST2DMolFile

> <Tox>
2.598

> <CAS>
107-59-5

$$$$

  CDK

  9  8  0  0  0  0  0  0  0  0999 V2000
    0.0000    0.4532    0.0000 C   0  0  0  0  0  0  0  0  0  0  0  0
    0.8561    0.9569    0.0000 C   0  0  0  0  0  0  0  0  0  0  0  0
    1.7123    0.4532    0.0000 C   0  0  0  0  0  0  0  0  0  0  0  0
    2.6188    0.9569    0.0000 C   0  0  0  0  0  0  0  0  0  0  0  0
    3.4749    0.4532    0.0000 C   0  0  0  0  0  0  0  0  0  0  0  0
    4.3310    0.9569    0.0000 Si  0  0  0  0  0  0  0  0  0  0  0  0
    5.1872    0.4532    0.0000 Cl  0  0  0  0  0  0  0  0  0  0  0  0
    4.3310    1.9641    0.0000 Cl  0  0  0  0  0  0  0  0  0  0  0  0
    4.5828    0.0000    0.0000 Cl  0  0  0  0  0  0  0  0  0  0  0  0
  1  2  1  0  0  0  0 
  2  3  1  0  0  0  0 
  3  4  1  0  0  0  0 
  4  5  1  0  0  0  0 
  5  6  1  0  0  0  0 
  6  7  1  0  0  0  0 
  6  8  1  0  0  0  0 
  6  9  1  0  0  0  0 
M  END
> <Name>
Silane, pentyltrichloro-

> <Source>
NIST2DMolFile

> <Tox>
1.944

> <CAS>
107-72-2

$$$$

  CDK

  7  6  0  0  0  0  0  0  0  0999 V2000
    2.3037   -1.9950    0.0000 N   0  0  0  0  0  0  0  0  0  0  0  0
    3.4555   -1.3315    0.0000 C   0  0  0  0  0  0  0  0  0  0  0  0
    1.1518   -1.3315    0.0000 C   0  0  0  0  0  0  0  0  0  0  0  0
    3.4555   -0.0000    0.0000 C   0  0  0  0  0  0  0  0  0  0  0  0
    4.6073   -1.9950    0.0000 C   0  0  0  0  0  0  0  0  0  0  0  0
    0.0000   -1.9950    0.0000 C   0  0  0  0  0  0  0  0  0  0  0  0
    1.1518   -0.0000    0.0000 C   0  0  0  0  0  0  0  0  0  0  0  0
  1  2  1  0  0  0  0 
  1  3  1  0  0  0  0 
  2  4  1  0  0  0  0 
  2  5  1  0  0  0  0 
  3  6  1  0  0  0  0 
  3  7  1  0  0  0  0 
M  END
> <Name>
2-Propanamine, N-(1-methylethyl)-

> <Source>
DSSTox2DMolFile

> <Tox>
2.119

> <CAS>
108-18-9

$$$$

  CDK

  7  6  0  0  0  0  0  0  0  0999 V2000
    3.4555   -0.0000    0.0000 C   0  0  0  0  0  0  0  0  0  0  0  0
    3.4555   -1.3315    0.0000 C   0  0  0  0  0  0  0  0  0  0  0  0
    4.6073   -1.9950    0.0000 C   0  0  0  0  0  0  0  0  0  0  0  0
    2.3037   -1.9950    0.0000 O   0  0  0  0  0  0  0  0  0  0  0  0
    1.1518   -1.3315    0.0000 C   0  0  0  0  0  0  0  0  0  0  0  0
    0.0000   -1.9950    0.0000 C   0  0  0  0  0  0  0  0  0  0  0  0
    1.1518   -0.0000    0.0000 C   0  0  0  0  0  0  0  0  0  0  0  0
  1  2  1  0  0  0  0 
  2  3  1  0  0  0  0 
  2  4  1  0  0  0  0 
  4  5  1  0  0  0  0 
  5  6  1  0  0  0  0 
  5  7  1  0  0  0  0 
M  END
> <Name>
Propane, 2,2'-oxybis-

> <Source>
DSSTox2DMolFile

> <Tox>
1.081

> <CAS>
108-20-3

$$$$

  CDK

  7  7  0  0  0  0  0  0  0  0999 V2000
    2.3465   -0.0000    0.0000 O   0  0  0  0  0  0  0  0  0  0  0  0
    3.4277   -0.7885    0.0000 C   0  0  0  0  0  0  0  0  0  0  0  0
    1.2795   -0.7601    0.0000 C   0  0  0  0  0  0  0  0  0  0  0  0
    3.0075   -2.0302    0.0000 C   0  0  0  0  0  0  0  0  0  0  0  0
    4.7214   -0.4060    0.0000 O   0  0  0  0  0  0  0  0  0  0  0  0
    1.6903   -2.0302    0.0000 C   0  0  0  0  0  0  0  0  0  0  0  0
    0.0000   -0.3305    0.0000 O   0  0  0  0  0  0  0  0  0  0  0  0
  1  2  1  0  0  0  0 
  1  3  1  0  0  0  0 
  2  4  1  0  0  0  0 
  2  5  2  0  0  0  0 
  3  6  1  0  0  0  0 
  3  7  2  0  0  0  0 
  4  6  2  0  0  0  0 
M  END
> <Name>
Maleic anhydride

> <Source>
DSSTox2DMolFile

> <Tox>
2.389

> <CAS>
108-31-6

$$$$

  CDK

  8  8  0  0  0  0  0  0  0  0999 V2000
    0.0000   -2.6588    0.0000 C   0  0  0  0  0  0  0  0  0  0  0  0
    1.1520   -1.9953    0.0000 C   0  0  0  0  0  0  0  0  0  0  0  0
    1.1520   -0.6635    0.0000 C   0  0  0  0  0  0  0  0  0  0  0  0
    2.3040   -2.6588    0.0000 C   0  0  0  0  0  0  0  0  0  0  0  0
    2.3040   -0.0000    0.0000 C   0  0  0  0  0  0  0  0  0  0  0  0
    3.4560   -1.9953    0.0000 C   0  0  0  0  0  0  0  0  0  0  0  0
    3.4560   -0.6635    0.0000 C   0  0  0  0  0  0  0  0  0  0  0  0
    4.6080   -2.6588    0.0000 C   0  0  0  0  0  0  0  0  0  0  0  0
  1  2  1  0  0  0  0 
  2  3  2  0  0  0  0 
  2  4  1  0  0  0  0 
  3  5  1  0  0  0  0 
  6  4  2  0  0  0  0 
  5  7  2  0  0  0  0 
  7  6  1  0  0  0  0 
  6  8  1  0  0  0  0 
M  END
> <Name>
Benzene, 1,3-dimethyl-

> <Source>
DSSTox2DMolFile

> <Tox>
1.327

> <CAS>
108-38-3

$$$$

  CDK

  9  9  0  0  0  0  0  0  0  0999 V2000
    3.4465   -1.9878    0.0000 N   0  0  0  0  0  0  0  0  0  0  0  0
    3.4465   -3.3223    0.0000 C   0  0  0  0  0  0  0  0  0  0  0  0
    2.3099   -1.3344    0.0000 C   0  0  0  0  0  0  0  0  0  0  0  0
    2.3099   -3.9941    0.0000 N   0  0  0  0  0  0  0  0  0  0  0  0
    4.6015   -3.9941    0.0000 Cl  0  0  0  0  0  0  0  0  0  0  0  0
    1.1550   -1.9878    0.0000 N   0  0  0  0  0  0  0  0  0  0  0  0
    2.3099   -0.0000    0.0000 Cl  0  0  0  0  0  0  0  0  0  0  0  0
    1.1550   -3.3223    0.0000 C   0  0  0  0  0  0  0  0  0  0  0  0
    0.0000   -3.9941    0.0000 Cl  0  0  0  0  0  0  0  0  0  0  0  0
  1  2  2  0  0  0  0 
  1  3  1  0  0  0  0 
  2  4  1  0  0  0  0 
  2  5  1  0  0  0  0 
  6  3  2  0  0  0  0 
  3  7  1  0  0  0  0 
  4  8  2  0  0  0  0 
  8  6  1  0  0  0  0 
  8  9  1  0  0  0  0 
M  END
> <Name>
1,3,5-Triazine, 2,4,6-trichloro-

> <Source>
DSSTox2DMolFile

> <Tox>
2.580

> <CAS>
108-77-0

$$$$

  CDK

  7  7  0  0  0  0  0  0  0  0999 V2000
    3.3250   -2.3032    0.0000 N   0  0  0  0  0  0  0  0  0  0  0  0
    1.9958   -2.3032    0.0000 C   0  0  0  0  0  0  0  0  0  0  0  0
    3.9916   -1.1496    0.0000 C   0  0  0  0  0  0  0  0  0  0  0  0
    1.3292   -1.1496    0.0000 C   0  0  0  0  0  0  0  0  0  0  0  0
    3.3250   -0.0000    0.0000 C   0  0  0  0  0  0  0  0  0  0  0  0
    0.0000   -1.1496    0.0000 C   0  0  0  0  0  0  0  0  0  0  0  0
    1.9958   -0.0000    0.0000 C   0  0  0  0  0  0  0  0  0  0  0  0
  1  2  2  0  0  0  0 
  1  3  1  0  0  0  0 
  2  4  1  0  0  0  0 
  5  3  2  0  0  0  0 
  4  6  1  0  0  0  0 
  4  7  2  0  0  0  0 
  7  5  1  0  0  0  0 
M  END
> <Name>
Pyridine, 3-methyl-

> <Source>
DSSTox2DMolFile

> <Tox>
2.367

> <CAS>
108-99-6

$$$$

  CDK

  7  6  0  0  0  0  0  0  0  0999 V2000
    3.4586   -1.9920    0.0000 C   0  0  0  0  0  0  0  0  0  0  0  0
    4.6135   -1.3338    0.0000 C   0  0  0  0  0  0  0  0  0  0  0  0
    2.2981   -1.3338    0.0000 O   0  0  0  0  0  0  0  0  0  0  0  0
    4.6135   -0.0000    0.0000 C   0  0  0  0  0  0  0  0  0  0  0  0
    5.7740   -1.9920    0.0000 C   0  0  0  0  0  0  0  0  0  0  0  0
    1.1606   -1.9920    0.0000 C   0  0  0  0  0  0  0  0  0  0  0  0
    0.0000   -1.3338    0.0000 C   0  0  0  0  0  0  0  0  0  0  0  0
  1  2  1  0  0  0  0 
  1  3  1  0  0  0  0 
  2  4  1  0  0  0  0 
  2  5  1  0  0  0  0 
  3  6  1  0  0  0  0 
  6  7  2  0  0  0  0 
M  END
> <Name>
Propane, 1-(ethenyloxy)-2-methyl-

> <Source>
DSSTox2DMolFile

> <Tox>
0.885

> <CAS>
109-53-5

$$$$

  CDK

  7  6  0  0  0  0  0  0  0  0999 V2000
    4.6110   -1.3314    0.0000 N   0  0  0  0  0  0  0  0  0  0  0  0
    3.4582   -1.9942    0.0000 C   0  0  0  0  0  0  0  0  0  0  0  0
    4.6110   -0.0000    0.0000 C   0  0  0  0  0  0  0  0  0  0  0  0
    5.7637   -1.9942    0.0000 C   0  0  0  0  0  0  0  0  0  0  0  0
    2.3055   -1.3314    0.0000 C   0  0  0  0  0  0  0  0  0  0  0  0
    1.1527   -1.9942    0.0000 C   0  0  0  0  0  0  0  0  0  0  0  0
    0.0000   -1.3314    0.0000 N   0  0  0  0  0  0  0  0  0  0  0  0
  1  2  1  0  0  0  0 
  1  3  1  0  0  0  0 
  1  4  1  0  0  0  0 
  2  5  1  0  0  0  0 
  5  6  1  0  0  0  0 
  6  7  1  0  0  0  0 
M  END
> <Name>
1,3-Propanediamine, N,N-dimethyl-

> <Source>
DSSTox2DMolFile

> <Tox>
1.738

> <CAS>
109-55-7

$$$$

  CDK

  7  6  0  0  0  0  0  0  0  0999 V2000
   -2.1759   -0.4965   -0.1947 C   0  0  0  0  0  0  0  0  0  0  0  0
   -0.8252   -0.2068   -0.8665 C   0  0  0  0  0  0  0  0  0  0  0  0
   -2.5931    0.5255    0.6682 O   0  0  0  0  0  0  0  0  0  0  0  0
    0.1793   -0.4386    0.1076 O   0  0  0  0  0  0  0  0  0  0  0  0
    1.4927   -0.0499   -0.3044 C   0  0  0  0  0  0  0  0  0  0  0  0
    1.7131    1.4475   -0.1049 C   0  0  0  0  0  0  0  0  0  0  0  0
    2.4577   -0.8574    0.5581 C   0  0  0  0  0  0  0  0  0  0  0  0
  1  2  1  0  0  0  0 
  1  3  1  0  0  0  0 
  2  4  1  0  0  0  0 
  4  5  1  0  0  0  0 
  5  6  1  0  0  0  0 
  5  7  1  0  0  0  0 
M  END
> <Name>
Ethanol, 2-(1-methylethoxy)-

> <Source>
DougDB3DMolFile

> <Tox>
1.309

> <CAS>
109-59-1

$$$$

  CDK

  5  4  0  0  0  0  0  0  0  0999 V2000
    0.0000   -0.6638    0.0000 Br  0  0  0  0  0  0  0  0  0  0  0  0
    1.1525   -0.0000    0.0000 C   0  0  0  0  0  0  0  0  0  0  0  0
    2.3050   -0.6638    0.0000 C   0  0  0  0  0  0  0  0  0  0  0  0
    3.4575   -0.0000    0.0000 C   0  0  0  0  0  0  0  0  0  0  0  0
    4.6099   -0.6638    0.0000 C   0  0  0  0  0  0  0  0  0  0  0  0
  1  2  1  0  0  0  0 
  2  3  1  0  0  0  0 
  3  4  1  0  0  0  0 
  4  5  1  0  0  0  0 
M  END
> <Name>
Butane, 1-bromo-

> <Source>
DSSTox2DMolFile

> <Tox>
1.696

> <CAS>
109-65-9

$$$$

  CDK

  5  4  0  0  0  0  0  0  0  0999 V2000
    0.0000   -0.6638    0.0000 N   0  0  0  0  0  0  0  0  0  0  0  0
    1.1525   -0.0000    0.0000 C   0  0  0  0  0  0  0  0  0  0  0  0
    2.3050   -0.6638    0.0000 C   0  0  0  0  0  0  0  0  0  0  0  0
    3.4575   -0.0000    0.0000 C   0  0  0  0  0  0  0  0  0  0  0  0
    4.6099   -0.6638    0.0000 N   0  0  0  0  0  0  0  0  0  0  0  0
  1  2  1  0  0  0  0 
  2  3  1  0  0  0  0 
  3  4  1  0  0  0  0 
  4  5  1  0  0  0  0 
M  END
> <Name>
Trimethylenediamine

> <Source>
DSSTox2DMolFile

> <Tox>
2.377

> <CAS>
109-76-2

$$$$

  CDK

  5  4  0  0  0  0  0  0  0  0999 V2000
    0.0000   -0.6638    0.0000 C   0  0  0  0  0  0  0  0  0  0  0  0
    1.1525   -0.0000    0.0000 C   0  0  0  0  0  0  0  0  0  0  0  0
    2.3050   -0.6638    0.0000 N   0  0  0  0  0  0  0  0  0  0  0  0
    3.4575   -0.0000    0.0000 C   0  0  0  0  0  0  0  0  0  0  0  0
    4.6099   -0.6638    0.0000 C   0  0  0  0  0  0  0  0  0  0  0  0
  1  2  1  0  0  0  0 
  2  3  1  0  0  0  0 
  3  4  1  0  0  0  0 
  4  5  1  0  0  0  0 
M  END
> <Name>
Ethanamine, N-ethyl-

> <Source>
DSSTox2DMolFile

> <Tox>
2.132

> <CAS>
109-89-7

$$$$

  CDK

  5  4  0  0  0  0  0  0  0  0999 V2000
   -1.3292    0.5023    0.0000 C   0  0  0  0  0  0  0  0  0  0  0  0
   -1.8349   -0.5961   -0.0002 O   0  0  0  0  0  0  0  0  0  0  0  0
    0.0141    0.6501    0.0002 O   0  0  0  0  0  0  0  0  0  0  0  0
    0.8480   -0.5129    0.0004 C   0  0  0  0  0  0  0  0  0  0  0  0
    2.2824   -0.0224   -0.0003 C   0  0  0  0  0  0  0  0  0  0  0  0
  1  2  2  0  0  0  0 
  1  3  1  0  0  0  0 
  3  4  1  0  0  0  0 
  4  5  1  0  0  0  0 
M  END
> <Name>
Formic acid, ethyl ester

> <Source>
DougDB3DMolFile

> <Tox>
1.603

> <CAS>
109-94-4

$$$$

  CDK

  8  7  0  0  0  0  0  0  0  0999 V2000
    5.7628   -1.9939    0.0000 C   0  0  0  0  0  0  0  0  0  0  0  0
    4.6103   -1.3312    0.0000 C   0  0  0  0  0  0  0  0  0  0  0  0
    4.6103   -0.0000    0.0000 O   0  0  0  0  0  0  0  0  0  0  0  0
    3.4577   -1.9939    0.0000 C   0  0  0  0  0  0  0  0  0  0  0  0
    2.3051   -1.3312    0.0000 C   0  0  0  0  0  0  0  0  0  0  0  0
    1.1526   -1.9939    0.0000 C   0  0  0  0  0  0  0  0  0  0  0  0
    1.1526   -3.3252    0.0000 C   0  0  0  0  0  0  0  0  0  0  0  0
    0.0000   -1.3312    0.0000 C   0  0  0  0  0  0  0  0  0  0  0  0
  1  2  1  0  0  0  0 
  2  3  2  0  0  0  0 
  2  4  1  0  0  0  0 
  4  5  1  0  0  0  0 
  5  6  1  0  0  0  0 
  6  7  1  0  0  0  0 
  6  8  1  0  0  0  0 
M  END
> <Name>
2-Hexanone, 5-methyl-

> <Source>
DSSTox2DMolFile

> <Tox>
1.552

> <CAS>
110-12-3

$$$$

  CDK

 18 17  0  0  0  0  0  0  0  0999 V2000
   16.0803   -3.3125    0.0000 C   0  0  0  0  0  0  0  0  0  0  0  0
   16.0803   -1.9940    0.0000 C   0  0  0  0  0  0  0  0  0  0  0  0
   14.9386   -1.3186    0.0000 O   0  0  0  0  0  0  0  0  0  0  0  0
   13.7808   -1.9940    0.0000 C   0  0  0  0  0  0  0  0  0  0  0  0
   13.7808   -3.3125    0.0000 O   0  0  0  0  0  0  0  0  0  0  0  0
   12.6391   -1.3186    0.0000 C   0  0  0  0  0  0  0  0  0  0  0  0
   11.4813   -1.9940    0.0000 C   0  0  0  0  0  0  0  0  0  0  0  0
   10.3396   -1.3186    0.0000 C   0  0  0  0  0  0  0  0  0  0  0  0
    9.1819   -1.9940    0.0000 C   0  0  0  0  0  0  0  0  0  0  0  0
    8.0402   -1.3186    0.0000 C   0  0  0  0  0  0  0  0  0  0  0  0
    6.8985   -1.9940    0.0000 C   0  0  0  0  0  0  0  0  0  0  0  0
    5.7407   -1.3186    0.0000 C   0  0  0  0  0  0  0  0  0  0  0  0
    4.5990   -1.9940    0.0000 C   0  0  0  0  0  0  0  0  0  0  0  0
    3.4412   -1.3186    0.0000 C   0  0  0  0  0  0  0  0  0  0  0  0
    3.4412   -0.0000    0.0000 O   0  0  0  0  0  0  0  0  0  0  0  0
    2.2995   -1.9940    0.0000 O   0  0  0  0  0  0  0  0  0  0  0  0
    1.1417   -1.3186    0.0000 C   0  0  0  0  0  0  0  0  0  0  0  0
    0.0000   -1.9940    0.0000 C   0  0  0  0  0  0  0  0  0  0  0  0
  1  2  1  0  0  0  0 
  2  3  1  0  0  0  0 
  3  4  1  0  0  0  0 
  4  5  2  0  0  0  0 
  4  6  1  0  0  0  0 
  6  7  1  0  0  0  0 
  7  8  1  0  0  0  0 
  8  9  1  0  0  0  0 
  9 10  1  0  0  0  0 
 10 11  1  0  0  0  0 
 11 12  1  0  0  0  0 
 12 13  1  0  0  0  0 
 13 14  1  0  0  0  0 
 14 15  2  0  0  0  0 
 14 16  1  0  0  0  0 
 16 17  1  0  0  0  0 
 17 18  1  0  0  0  0 
M  END
> <Name>
Decanedioic acid, diethyl ester

> <Source>
DSSTox2DMolFile

> <Tox>
1.252

> <CAS>
110-40-7

$$$$

  CDK

  8  7  0  0  0  0  0  0  0  0999 V2000
    0.0000   -1.9974    0.0000 O   0  0  0  0  0  0  0  0  0  0  0  0
    1.1542   -1.3339    0.0000 N   0  0  0  0  0  0  0  0  0  0  0  0
    2.3015   -1.9974    0.0000 O   0  0  0  0  0  0  0  0  0  0  0  0
    3.4558   -1.3339    0.0000 C   0  0  0  0  0  0  0  0  0  0  0  0
    4.6100   -1.9974    0.0000 C   0  0  0  0  0  0  0  0  0  0  0  0
    5.7573   -1.3339    0.0000 C   0  0  0  0  0  0  0  0  0  0  0  0
    5.7573   -0.0000    0.0000 C   0  0  0  0  0  0  0  0  0  0  0  0
    6.9115   -1.9974    0.0000 C   0  0  0  0  0  0  0  0  0  0  0  0
  1  2  2  0  0  0  0 
  2  3  1  0  0  0  0 
  3  4  1  0  0  0  0 
  4  5  1  0  0  0  0 
  5  6  1  0  0  0  0 
  6  7  1  0  0  0  0 
  6  8  1  0  0  0  0 
M  END
> <Name>
Nitrous acid, 3-methylbutyl ester

> <Source>
DSSTox2DMolFile

> <Tox>
2.365

> <CAS>
110-46-3

$$$$

  CDK

  6  5  0  0  0  0  0  0  0  0999 V2000
    0.0000   -1.1500    0.0000 N   0  0  0  0  0  0  0  0  0  0  0  0
    1.3297   -1.1500    0.0000 C   0  0  0  0  0  0  0  0  0  0  0  0
    2.6593   -1.1500    0.0000 C   0  0  0  0  0  0  0  0  0  0  0  0
    3.3302   -0.0000    0.0000 C   0  0  0  0  0  0  0  0  0  0  0  0
    4.6598   -0.0000    0.0000 C   0  0  0  0  0  0  0  0  0  0  0  0
    5.9895   -0.0000    0.0000 N   0  0  0  0  0  0  0  0  0  0  0  0
  1  2  3  0  0  0  0 
  2  3  1  0  0  0  0 
  3  4  1  0  0  0  0 
  4  5  1  0  0  0  0 
  5  6  3  0  0  0  0 
M  END
> <Name>
Butanedinitrile

> <Source>
DSSTox2DMolFile

> <Tox>
2.250

> <CAS>
110-61-2

$$$$

  CDK

  6  5  0  0  0  0  0  0  0  0999 V2000
    1.8133    0.5158   -0.0830 N   0  0  0  0  0  0  0  0  0  0  0  0
    0.6427   -0.3948    0.0016 C   0  0  0  0  0  0  0  0  0  0  0  0
    3.1004   -0.1912    0.0259 C   0  0  0  0  0  0  0  0  0  0  0  0
   -0.6613    0.3937   -0.0055 C   0  0  0  0  0  0  0  0  0  0  0  0
   -1.8583   -0.5443    0.0056 C   0  0  0  0  0  0  0  0  0  0  0  0
   -3.1612    0.2230    0.0047 C   0  0  0  0  0  0  0  0  0  0  0  0
  1  2  1  0  0  0  0 
  1  3  1  0  0  0  0 
  2  4  1  0  0  0  0 
  4  5  1  0  0  0  0 
  5  6  1  0  0  0  0 
M  END
> <Name>
1-Butanamine, N-methyl-

> <Source>
DougDB3DMolFile

> <Tox>
2.317

> <CAS>
110-68-9

$$$$

  CDK

  6  6  0  0  0  0  0  0  0  0999 V2000
    2.3036   -1.9950    0.0000 N   0  0  0  0  0  0  0  0  0  0  0  0
    1.1518   -2.6600    0.0000 C   0  0  0  0  0  0  0  0  0  0  0  0
    2.3036   -0.6650    0.0000 C   0  0  0  0  0  0  0  0  0  0  0  0
    0.0000   -1.9950    0.0000 C   0  0  0  0  0  0  0  0  0  0  0  0
    1.1518   -0.0000    0.0000 C   0  0  0  0  0  0  0  0  0  0  0  0
    0.0000   -0.6650    0.0000 C   0  0  0  0  0  0  0  0  0  0  0  0
  1  2  2  0  0  0  0 
  1  3  1  0  0  0  0 
  2  4  1  0  0  0  0 
  5  3  2  0  0  0  0 
  4  6  2  0  0  0  0 
  6  5  1  0  0  0  0 
M  END
> <Name>
Pyridine

> <Source>
DSSTox2DMolFile

> <Tox>
1.948

> <CAS>
110-86-1

$$$$

  CDK

  9  8  0  0  0  0  0  0  0  0999 V2000
    0.0000   -1.1546    0.0000 C   0  0  0  0  0  0  0  0  0  0  0  0
    1.3281   -1.1546    0.0000 C   0  0  0  0  0  0  0  0  0  0  0  0
    1.9922   -2.3033    0.0000 C   0  0  0  0  0  0  0  0  0  0  0  0
    1.9922   -0.0000    0.0000 C   0  0  0  0  0  0  0  0  0  0  0  0
    3.3263   -0.0000    0.0000 C   0  0  0  0  0  0  0  0  0  0  0  0
    3.9904   -1.1546    0.0000 C   0  0  0  0  0  0  0  0  0  0  0  0
    5.3186   -1.1546    0.0000 C   0  0  0  0  0  0  0  0  0  0  0  0
    5.9826   -0.0000    0.0000 C   0  0  0  0  0  0  0  0  0  0  0  0
    5.9826   -2.3033    0.0000 O   0  0  0  0  0  0  0  0  0  0  0  0
  1  2  1  0  0  0  0 
  2  3  1  0  0  0  0 
  2  4  2  0  0  0  0 
  4  5  1  0  0  0  0 
  5  6  1  0  0  0  0 
  6  7  1  0  0  0  0 
  7  8  1  0  0  0  0 
  7  9  2  0  0  0  0 
M  END
> <Name>
5-Hepten-2-one, 6-methyl-

> <Source>
DSSTox2DMolFile

> <Tox>
1.557

> <CAS>
110-93-0

$$$$

  CDK

  9  8  0  0  0  0  0  0  0  0999 V2000
    6.9090   -1.9967    0.0000 C   0  0  0  0  0  0  0  0  0  0  0  0
    5.7552   -1.3334    0.0000 C   0  0  0  0  0  0  0  0  0  0  0  0
    4.6083   -1.9967    0.0000 C   0  0  0  0  0  0  0  0  0  0  0  0
    5.7552   -0.0000    0.0000 O   0  0  0  0  0  0  0  0  0  0  0  0
    3.4545   -1.3334    0.0000 N   0  0  0  0  0  0  0  0  0  0  0  0
    2.3007   -1.9967    0.0000 C   0  0  0  0  0  0  0  0  0  0  0  0
    1.1538   -1.3334    0.0000 C   0  0  0  0  0  0  0  0  0  0  0  0
    0.0000   -1.9967    0.0000 C   0  0  0  0  0  0  0  0  0  0  0  0
    1.1538   -0.0000    0.0000 O   0  0  0  0  0  0  0  0  0  0  0  0
  1  2  1  0  0  0  0 
  2  3  1  0  0  0  0 
  2  4  1  0  0  0  0 
  3  5  1  0  0  0  0 
  5  6  1  0  0  0  0 
  6  7  1  0  0  0  0 
  7  8  1  0  0  0  0 
  7  9  1  0  0  0  0 
M  END
> <Name>
2-Propanol, 1,1'-iminobis-

> <Source>
DSSTox2DMolFile

> <Tox>
1.446

> <CAS>
110-97-4

$$$$

  CDK

 11 10  0  0  0  0  0  0  0  0999 V2000
    0.0000    0.0000    0.0000 O   0  0  0  0  0  0  0  0  0  0  0  0
    0.9003    0.5002    0.0000 C   0  0  0  0  0  0  0  0  0  0  0  0
    1.7507    0.0000    0.0000 C   0  0  0  0  0  0  0  0  0  0  0  0
    0.9003    1.5006    0.0000 O   0  0  0  0  0  0  0  0  0  0  0  0
    2.6010    0.5002    0.0000 C   0  0  0  0  0  0  0  0  0  0  0  0
    3.5014    0.0500    0.0000 S   0  0  0  0  0  0  0  0  0  0  0  0
    4.3517    0.5502    0.0000 C   0  0  0  0  0  0  0  0  0  0  0  0
    5.2020    0.0500    0.0000 C   0  0  0  0  0  0  0  0  0  0  0  0
    6.0523    0.5502    0.0000 C   0  0  0  0  0  0  0  0  0  0  0  0
    6.9527    0.0500    0.0000 O   0  0  0  0  0  0  0  0  0  0  0  0
    6.0523    1.5506    0.0000 O   0  0  0  0  0  0  0  0  0  0  0  0
  1  2  1  0  0  0  0 
  2  3  1  0  0  0  0 
  2  4  2  0  0  0  0 
  3  5  1  0  0  0  0 
  5  6  1  0  0  0  0 
  6  7  1  0  0  0  0 
  7  8  1  0  0  0  0 
  8  9  1  0  0  0  0 
  9 10  1  0  0  0  0 
  9 11  2  0  0  0  0 
M  END
> <Name>
Propanoic acid, 3,3'-thiobis-

> <Source>
NIST2DMolFile

> <Tox>
1.774

> <CAS>
111-17-1

$$$$

  CDK

 12 11  0  0  0  0  0  0  0  0999 V2000
    2.2841   -1.3332    0.0000 C   0  0  0  0  0  0  0  0  0  0  0  0
    3.4416   -2.0050    0.0000 C   0  0  0  0  0  0  0  0  0  0  0  0
    1.1369   -2.0050    0.0000 N   0  0  0  0  0  0  0  0  0  0  0  0
    4.5888   -1.3332    0.0000 C   0  0  0  0  0  0  0  0  0  0  0  0
    0.0000   -1.3332    0.0000 C   0  0  0  0  0  0  0  0  0  0  0  0
    1.1369   -3.3279    0.0000 C   0  0  0  0  0  0  0  0  0  0  0  0
    5.7464   -2.0050    0.0000 C   0  0  0  0  0  0  0  0  0  0  0  0
    6.8936   -1.3332    0.0000 C   0  0  0  0  0  0  0  0  0  0  0  0
    8.0511   -2.0050    0.0000 C   0  0  0  0  0  0  0  0  0  0  0  0
    9.1983   -1.3332    0.0000 N   0  0  0  0  0  0  0  0  0  0  0  0
   10.3352   -2.0050    0.0000 C   0  0  0  0  0  0  0  0  0  0  0  0
    9.1983   -0.0000    0.0000 C   0  0  0  0  0  0  0  0  0  0  0  0
  1  2  1  0  0  0  0 
  1  3  1  0  0  0  0 
  2  4  1  0  0  0  0 
  3  5  1  0  0  0  0 
  3  6  1  0  0  0  0 
  4  7  1  0  0  0  0 
  7  8  1  0  0  0  0 
  8  9  1  0  0  0  0 
  9 10  1  0  0  0  0 
 10 11  1  0  0  0  0 
 10 12  1  0  0  0  0 
M  END
> <Name>
1,6-Hexanediamine, N,N,N',N'-tetramethyl-

> <Source>
DSSTox2DMolFile

> <Tox>
2.857

> <CAS>
111-18-2

$$$$

  CDK

 14 13  0  0  0  0  0  0  0  0999 V2000
    1.1505   -1.3275    0.0000 C   0  0  0  0  0  0  0  0  0  0  0  0
    2.2884   -1.9976    0.0000 C   0  0  0  0  0  0  0  0  0  0  0  0
    0.0000   -1.9976    0.0000 O   0  0  0  0  0  0  0  0  0  0  0  0
    1.1505   -0.0000    0.0000 O   0  0  0  0  0  0  0  0  0  0  0  0
    3.4389   -1.3275    0.0000 C   0  0  0  0  0  0  0  0  0  0  0  0
    4.5895   -1.9976    0.0000 C   0  0  0  0  0  0  0  0  0  0  0  0
    5.7400   -1.3275    0.0000 C   0  0  0  0  0  0  0  0  0  0  0  0
    6.9032   -1.9976    0.0000 C   0  0  0  0  0  0  0  0  0  0  0  0
    8.0537   -1.3275    0.0000 C   0  0  0  0  0  0  0  0  0  0  0  0
    9.2042   -1.9976    0.0000 C   0  0  0  0  0  0  0  0  0  0  0  0
   10.3547   -1.3275    0.0000 C   0  0  0  0  0  0  0  0  0  0  0  0
   11.4926   -1.9976    0.0000 C   0  0  0  0  0  0  0  0  0  0  0  0
   12.6431   -1.3275    0.0000 O   0  0  0  0  0  0  0  0  0  0  0  0
   11.4926   -3.3251    0.0000 O   0  0  0  0  0  0  0  0  0  0  0  0
  1  2  1  0  0  0  0 
  1  3  1  0  0  0  0 
  1  4  2  0  0  0  0 
  2  5  1  0  0  0  0 
  5  6  1  0  0  0  0 
  6  7  1  0  0  0  0 
  7  8  1  0  0  0  0 
  8  9  1  0  0  0  0 
  9 10  1  0  0  0  0 
 10 11  1  0  0  0  0 
 11 12  1  0  0  0  0 
 12 13  1  0  0  0  0 
 12 14  2  0  0  0  0 
M  END
> <Name>
Decanedioic acid

> <Source>
DSSTox2DMolFile

> <Tox>
1.148

> <CAS>
111-20-6

$$$$

  CDK

  7  6  0  0  0  0  0  0  0  0999 V2000
    3.4575   -0.0000    0.0000 N   0  0  0  0  0  0  0  0  0  0  0  0
    2.3027   -0.6638    0.0000 C   0  0  0  0  0  0  0  0  0  0  0  0
    4.6122   -0.6638    0.0000 C   0  0  0  0  0  0  0  0  0  0  0  0
    1.1548   -0.0000    0.0000 C   0  0  0  0  0  0  0  0  0  0  0  0
    5.7601   -0.0000    0.0000 C   0  0  0  0  0  0  0  0  0  0  0  0
    0.0000   -0.6638    0.0000 N   0  0  0  0  0  0  0  0  0  0  0  0
    6.9149   -0.6638    0.0000 N   0  0  0  0  0  0  0  0  0  0  0  0
  1  2  1  0  0  0  0 
  1  3  1  0  0  0  0 
  2  4  1  0  0  0  0 
  3  5  1  0  0  0  0 
  4  6  1  0  0  0  0 
  5  7  1  0  0  0  0 
M  END
> <Name>
1,2-Ethanediamine, N-(2-aminoethyl)-

> <Source>
DSSTox2DMolFile

> <Tox>
1.980

> <CAS>
111-40-0

$$$$

  CDK

  7  6  0  0  0  0  0  0  0  0999 V2000
    0.0000   -0.6638    0.0000 Cl  0  0  0  0  0  0  0  0  0  0  0  0
    1.1548   -0.0000    0.0000 C   0  0  0  0  0  0  0  0  0  0  0  0
    2.3027   -0.6638    0.0000 C   0  0  0  0  0  0  0  0  0  0  0  0
    3.4575   -0.0000    0.0000 O   0  0  0  0  0  0  0  0  0  0  0  0
    4.6122   -0.6638    0.0000 C   0  0  0  0  0  0  0  0  0  0  0  0
    5.7601   -0.0000    0.0000 C   0  0  0  0  0  0  0  0  0  0  0  0
    6.9149   -0.6638    0.0000 Cl  0  0  0  0  0  0  0  0  0  0  0  0
  1  2  1  0  0  0  0 
  2  3  1  0  0  0  0 
  3  4  1  0  0  0  0 
  4  5  1  0  0  0  0 
  5  6  1  0  0  0  0 
  6  7  1  0  0  0  0 
M  END
> <Name>
Ethane, 1,1'-oxybis(2-chloro-

> <Source>
DSSTox2DMolFile

> <Tox>
3.280

> <CAS>
111-44-4

$$$$

  CDK

  8  7  0  0  0  0  0  0  0  0999 V2000
    8.0744   -0.0000    0.0000 C   0  0  0  0  0  0  0  0  0  0  0  0
    6.9197   -0.6621    0.0000 C   0  0  0  0  0  0  0  0  0  0  0  0
    5.7651   -0.0000    0.0000 C   0  0  0  0  0  0  0  0  0  0  0  0
    4.6105   -0.6621    0.0000 C   0  0  0  0  0  0  0  0  0  0  0  0
    3.4639   -0.0000    0.0000 C   0  0  0  0  0  0  0  0  0  0  0  0
    2.3093   -0.6621    0.0000 C   0  0  0  0  0  0  0  0  0  0  0  0
    1.1546   -0.0000    0.0000 C   0  0  0  0  0  0  0  0  0  0  0  0
    0.0000   -0.6621    0.0000 O   0  0  0  0  0  0  0  0  0  0  0  0
  1  2  1  0  0  0  0 
  2  3  1  0  0  0  0 
  3  4  1  0  0  0  0 
  4  5  1  0  0  0  0 
  5  6  1  0  0  0  0 
  6  7  1  0  0  0  0 
  7  8  1  0  0  0  0 
M  END
> <Name>
Heptyl alcohol

> <Source>
DSSTox2DMolFile

> <Tox>
2.366

> <CAS>
111-70-6

$$$$

  CDK

  9  8  0  0  0  0  0  0  0  0999 V2000
    5.7436   -0.0000    0.0000 O   0  0  0  0  0  0  0  0  0  0  0  0
    4.6004   -0.6638    0.0000 C   0  0  0  0  0  0  0  0  0  0  0  0
    6.9513   -0.6638    0.0000 C   0  0  0  0  0  0  0  0  0  0  0  0
    3.4756   -0.0000    0.0000 O   0  0  0  0  0  0  0  0  0  0  0  0
    8.0760   -0.0000    0.0000 C   0  0  0  0  0  0  0  0  0  0  0  0
    2.2679   -0.6638    0.0000 C   0  0  0  0  0  0  0  0  0  0  0  0
    9.2192   -0.6638    0.0000 Cl  0  0  0  0  0  0  0  0  0  0  0  0
    1.1432   -0.0000    0.0000 C   0  0  0  0  0  0  0  0  0  0  0  0
    0.0000   -0.6638    0.0000 Cl  0  0  0  0  0  0  0  0  0  0  0  0
  1  2  1  0  0  0  0 
  1  3  1  0  0  0  0 
  2  4  1  0  0  0  0 
  3  5  1  0  0  0  0 
  4  6  1  0  0  0  0 
  5  7  1  0  0  0  0 
  6  8  1  0  0  0  0 
  8  9  1  0  0  0  0 
M  END
> <Name>
Ethane, 1,1'-(methylenebis(oxy))bis(2-chloro-

> <Source>
DSSTox2DMolFile

> <Tox>
3.425

> <CAS>
111-91-1

$$$$

  CDK

  9  8  0  0  0  0  0  0  0  0999 V2000
    1.1505   -0.6719    0.0000 C   0  0  0  0  0  0  0  0  0  0  0  0
    2.3010   -0.0000    0.0000 C   0  0  0  0  0  0  0  0  0  0  0  0
    0.0000   -1.3253    0.0000 N   0  0  0  0  0  0  0  0  0  0  0  0
    3.4514   -0.6719    0.0000 C   0  0  0  0  0  0  0  0  0  0  0  0
    4.6019   -0.0000    0.0000 S   0  0  0  0  0  0  0  0  0  0  0  0
    5.7524   -0.6719    0.0000 C   0  0  0  0  0  0  0  0  0  0  0  0
    6.9029   -0.0000    0.0000 C   0  0  0  0  0  0  0  0  0  0  0  0
    8.0533   -0.6719    0.0000 C   0  0  0  0  0  0  0  0  0  0  0  0
    9.2038   -1.3253    0.0000 N   0  0  0  0  0  0  0  0  0  0  0  0
  1  2  1  0  0  0  0 
  1  3  3  0  0  0  0 
  2  4  1  0  0  0  0 
  4  5  1  0  0  0  0 
  6  5  1  0  0  0  0 
  7  6  1  0  0  0  0 
  8  7  1  0  0  0  0 
  8  9  3  0  0  0  0 
M  END
> <Name>
Propanenitrile, 3,3'-thiobis-

> <Source>
DSSTox2DMolFile

> <Tox>
1.522

> <CAS>
111-97-7

$$$$

  CDK

 10  9  0  0  0  0  0  0  0  0999 V2000
    0.0000   -0.6638    0.0000 N   0  0  0  0  0  0  0  0  0  0  0  0
    1.1513   -0.0000    0.0000 C   0  0  0  0  0  0  0  0  0  0  0  0
    2.3027   -0.6638    0.0000 C   0  0  0  0  0  0  0  0  0  0  0  0
    3.4540   -0.0000    0.0000 N   0  0  0  0  0  0  0  0  0  0  0  0
    4.6053   -0.6638    0.0000 C   0  0  0  0  0  0  0  0  0  0  0  0
    5.7670   -0.0000    0.0000 C   0  0  0  0  0  0  0  0  0  0  0  0
    6.9184   -0.6638    0.0000 N   0  0  0  0  0  0  0  0  0  0  0  0
    8.0697   -0.0000    0.0000 C   0  0  0  0  0  0  0  0  0  0  0  0
    9.2210   -0.6638    0.0000 C   0  0  0  0  0  0  0  0  0  0  0  0
   10.3724   -0.0000    0.0000 N   0  0  0  0  0  0  0  0  0  0  0  0
  1  2  1  0  0  0  0 
  2  3  1  0  0  0  0 
  3  4  1  0  0  0  0 
  4  5  1  0  0  0  0 
  5  6  1  0  0  0  0 
  6  7  1  0  0  0  0 
  7  8  1  0  0  0  0 
  8  9  1  0  0  0  0 
  9 10  1  0  0  0  0 
M  END
> <Name>
1,2-Ethanediamine, N,N'-bis(2-aminoethyl)-

> <Source>
DSSTox2DMolFile

> <Tox>
1.767

> <CAS>
112-24-3

$$$$

  CDK

 10  9  0  0  0  0  0  0  0  0999 V2000
    1.1365   -0.0000    0.0000 C   0  0  0  0  0  0  0  0  0  0  0  0
    2.2833   -0.6716    0.0000 C   0  0  0  0  0  0  0  0  0  0  0  0
    0.0000   -0.6716    0.0000 O   0  0  0  0  0  0  0  0  0  0  0  0
    3.4405   -0.0000    0.0000 O   0  0  0  0  0  0  0  0  0  0  0  0
    4.5874   -0.6716    0.0000 C   0  0  0  0  0  0  0  0  0  0  0  0
    5.7445   -0.0000    0.0000 C   0  0  0  0  0  0  0  0  0  0  0  0
    6.8914   -0.6716    0.0000 C   0  0  0  0  0  0  0  0  0  0  0  0
    8.0485   -0.0000    0.0000 C   0  0  0  0  0  0  0  0  0  0  0  0
    9.1954   -0.6716    0.0000 C   0  0  0  0  0  0  0  0  0  0  0  0
   10.3319   -0.0000    0.0000 C   0  0  0  0  0  0  0  0  0  0  0  0
  1  2  1  0  0  0  0 
  1  3  1  0  0  0  0 
  2  4  1  0  0  0  0 
  4  5  1  0  0  0  0 
  5  6  1  0  0  0  0 
  6  7  1  0  0  0  0 
  7  8  1  0  0  0  0 
  8  9  1  0  0  0  0 
  9 10  1  0  0  0  0 
M  END
> <Name>
Ethanol, 2-(hexyloxy)-

> <Source>
DSSTox2DMolFile

> <Tox>
2.246

> <CAS>
112-25-4

$$$$

  CDK

 10  9  0  0  0  0  0  0  0  0999 V2000
    4.3473    0.4997    0.0000 C   0  0  0  0  0  0  0  0  0  0  0  0
    3.4478    0.0000    0.0000 C   0  0  0  0  0  0  0  0  0  0  0  0
    5.1968    0.0000    0.0000 O   0  0  0  0  0  0  0  0  0  0  0  0
    2.5984    0.4997    0.0000 O   0  0  0  0  0  0  0  0  0  0  0  0
    6.0462    0.4997    0.0000 C   0  0  0  0  0  0  0  0  0  0  0  0
    1.7489    0.0000    0.0000 C   0  0  0  0  0  0  0  0  0  0  0  0
    6.9457    0.0000    0.0000 C   0  0  0  0  0  0  0  0  0  0  0  0
    0.8495    0.4997    0.0000 C   0  0  0  0  0  0  0  0  0  0  0  0
    7.7951    0.4997    0.0000 Cl  0  0  0  0  0  0  0  0  0  0  0  0
    0.0000    0.0000    0.0000 Cl  0  0  0  0  0  0  0  0  0  0  0  0
  1  2  1  0  0  0  0 
  1  3  1  0  0  0  0 
  2  4  1  0  0  0  0 
  3  5  1  0  0  0  0 
  4  6  1  0  0  0  0 
  5  7  1  0  0  0  0 
  6  8  1  0  0  0  0 
  7  9  1  0  0  0  0 
  8 10  1  0  0  0  0 
M  END
> <Name>
Ethane, 1,2-bis(2-chloroethoxy)-

> <Source>
NIST2DMolFile

> <Tox>
2.874

> <CAS>
112-26-5

$$$$

  CDK

 11 10  0  0  0  0  0  0  0  0999 V2000
    0.0000   -0.6673    0.0000 C   0  0  0  0  0  0  0  0  0  0  0  0
    1.1505   -0.0000    0.0000 C   0  0  0  0  0  0  0  0  0  0  0  0
    2.3010   -0.6673    0.0000 C   0  0  0  0  0  0  0  0  0  0  0  0
    3.4515   -0.0000    0.0000 C   0  0  0  0  0  0  0  0  0  0  0  0
    4.6020   -0.6673    0.0000 C   0  0  0  0  0  0  0  0  0  0  0  0
    5.7525   -0.0000    0.0000 C   0  0  0  0  0  0  0  0  0  0  0  0
    6.9029   -0.6673    0.0000 C   0  0  0  0  0  0  0  0  0  0  0  0
    8.0534   -0.0000    0.0000 C   0  0  0  0  0  0  0  0  0  0  0  0
    9.2039   -0.6673    0.0000 C   0  0  0  0  0  0  0  0  0  0  0  0
   10.3544   -0.0000    0.0000 C   0  0  0  0  0  0  0  0  0  0  0  0
   11.5049   -0.6673    0.0000 O   0  0  0  0  0  0  0  0  0  0  0  0
  1  2  1  0  0  0  0 
  2  3  1  0  0  0  0 
  3  4  1  0  0  0  0 
  4  5  1  0  0  0  0 
  5  6  1  0  0  0  0 
  6  7  1  0  0  0  0 
  7  8  1  0  0  0  0 
  8  9  1  0  0  0  0 
  9 10  1  0  0  0  0 
 10 11  2  0  0  0  0 
M  END
> <Name>
1-Decanal

> <Source>
DSSTox2DMolFile

> <Tox>
1.703

> <CAS>
112-31-2

$$$$

  CDK

 11 10  0  0  0  0  0  0  0  0999 V2000
    0.0000   -0.6673    0.0000 C   0  0  0  0  0  0  0  0  0  0  0  0
    1.1505   -0.0000    0.0000 C   0  0  0  0  0  0  0  0  0  0  0  0
    2.3010   -0.6673    0.0000 C   0  0  0  0  0  0  0  0  0  0  0  0
    3.4515   -0.0000    0.0000 C   0  0  0  0  0  0  0  0  0  0  0  0
    4.6020   -0.6673    0.0000 O   0  0  0  0  0  0  0  0  0  0  0  0
    5.7525   -0.0000    0.0000 C   0  0  0  0  0  0  0  0  0  0  0  0
    6.9029   -0.6673    0.0000 C   0  0  0  0  0  0  0  0  0  0  0  0
    8.0534   -0.0000    0.0000 O   0  0  0  0  0  0  0  0  0  0  0  0
    9.2039   -0.6673    0.0000 C   0  0  0  0  0  0  0  0  0  0  0  0
   10.3544   -0.0000    0.0000 C   0  0  0  0  0  0  0  0  0  0  0  0
   11.5049   -0.6673    0.0000 O   0  0  0  0  0  0  0  0  0  0  0  0
  1  2  1  0  0  0  0 
  2  3  1  0  0  0  0 
  3  4  1  0  0  0  0 
  4  5  1  0  0  0  0 
  5  6  1  0  0  0  0 
  6  7  1  0  0  0  0 
  7  8  1  0  0  0  0 
  8  9  1  0  0  0  0 
  9 10  1  0  0  0  0 
 10 11  1  0  0  0  0 
M  END
> <Name>
Diethylene glycol monobutyl ether

> <Source>
DSSTox2DMolFile

> <Tox>
1.457

> <CAS>
112-34-5

$$$$

  CDK

 20 19  0  0  0  0  0  0  0  0999 V2000
    0.0000    0.0000    0.0000 C   0  0  0  0  0  0  0  0  0  0  0  0
    0.8524    0.5014    0.0000 C   0  0  0  0  0  0  0  0  0  0  0  0
    1.7048    0.0000    0.0000 C   0  0  0  0  0  0  0  0  0  0  0  0
    2.6074    0.5014    0.0000 C   0  0  0  0  0  0  0  0  0  0  0  0
    3.4598    0.0000    0.0000 C   0  0  0  0  0  0  0  0  0  0  0  0
    4.3122    0.5014    0.0000 C   0  0  0  0  0  0  0  0  0  0  0  0
    5.2147    0.0000    0.0000 C   0  0  0  0  0  0  0  0  0  0  0  0
    6.0671    0.5014    0.0000 C   0  0  0  0  0  0  0  0  0  0  0  0
    6.9196    0.0000    0.0000 C   0  0  0  0  0  0  0  0  0  0  0  0
    7.7720    0.5014    0.0000 C   0  0  0  0  0  0  0  0  0  0  0  0
    8.6244    0.0000    0.0000 C   0  0  0  0  0  0  0  0  0  0  0  0
    9.5269    0.5014    0.0000 C   0  0  0  0  0  0  0  0  0  0  0  0
   10.3793    0.0000    0.0000 C   0  0  0  0  0  0  0  0  0  0  0  0
   11.2819    0.5516    0.0000 C   0  0  0  0  0  0  0  0  0  0  0  0
   11.2819    1.5043    0.0000 C   0  0  0  0  0  0  0  0  0  0  0  0
   12.1343    1.9555    0.0000 C   0  0  0  0  0  0  0  0  0  0  0  0
   12.1343    2.9584    0.0000 C   0  0  0  0  0  0  0  0  0  0  0  0
   12.9867    3.4598    0.0000 C   0  0  0  0  0  0  0  0  0  0  0  0
   12.9867    4.4626    0.0000 O   0  0  0  0  0  0  0  0  0  0  0  0
   13.8892    2.9584    0.0000 Cl  0  0  0  0  0  0  0  0  0  0  0  0
  1  2  1  0  0  0  0 
  2  3  1  0  0  0  0 
  3  4  1  0  0  0  0 
  4  5  1  0  0  0  0 
  5  6  1  0  0  0  0 
  6  7  1  0  0  0  0 
  7  8  1  0  0  0  0 
  8  9  1  0  0  0  0 
 10  9  1  0  0  0  0 
 11 10  1  0  0  0  0 
 12 11  1  0  0  0  0 
 13 12  1  0  0  0  0 
 14 13  1  0  0  0  0 
 14 15  1  0  0  0  0 
 15 16  1  0  0  0  0 
 17 16  1  0  0  0  0 
 18 17  1  0  0  0  0 
 19 18  2  0  0  0  0 
 18 20  1  0  0  0  0 
M  END
> <Name>
Octadecanoyl chloride

> <Source>
NIST2DMolFile

> <Tox>
1.606

> <CAS>
112-76-5

$$$$

  CDK

 21 20  0  0  0  0  0  0  0  0999 V2000
    2.8610    3.4467    0.5912 C   0  0  0  0  0  0  0  0  0  0  0  0
    1.4041    3.6459    0.9423 C   0  0  0  0  0  0  0  0  0  0  0  0
    0.5024    2.7952    0.0626 C   0  0  0  0  0  0  0  0  0  0  0  0
   -0.9650    3.0690    0.3773 C   0  0  0  0  0  0  0  0  0  0  0  0
   -1.7346    2.2191   -0.4603 O   0  0  0  0  0  0  0  0  0  0  0  0
   -3.1302    2.4580   -0.3689 C   0  0  0  0  0  0  0  0  0  0  0  0
   -3.8395    1.3007   -1.0835 C   0  0  0  0  0  0  0  0  0  0  0  0
   -4.1423    0.3233   -0.1003 O   0  0  0  0  0  0  0  0  0  0  0  0
   -4.7769   -0.8308   -0.6290 C   0  0  0  0  0  0  0  0  0  0  0  0
   -4.8412   -1.8745    0.4963 C   0  0  0  0  0  0  0  0  0  0  0  0
   -3.8103   -2.8381    0.4488 O   0  0  0  0  0  0  0  0  0  0  0  0
   -2.5542   -2.4493    0.9753 C   0  0  0  0  0  0  0  0  0  0  0  0
   -1.5856   -2.0711   -0.1570 C   0  0  0  0  0  0  0  0  0  0  0  0
   -0.3454   -1.7785    0.4678 O   0  0  0  0  0  0  0  0  0  0  0  0
    0.6993   -1.5311   -0.4618 C   0  0  0  0  0  0  0  0  0  0  0  0
    1.8094   -0.8198    0.3243 C   0  0  0  0  0  0  0  0  0  0  0  0
    2.9602   -0.8410   -0.5067 O   0  0  0  0  0  0  0  0  0  0  0  0
    4.0800   -0.2012    0.0873 C   0  0  0  0  0  0  0  0  0  0  0  0
    5.2540   -0.3235   -0.8813 C   0  0  0  0  0  0  0  0  0  0  0  0
    5.9545   -1.6703   -0.7744 C   0  0  0  0  0  0  0  0  0  0  0  0
    6.5718   -1.8758    0.5916 C   0  0  0  0  0  0  0  0  0  0  0  0
  1  2  1  0  0  0  0 
  2  3  1  0  0  0  0 
  3  4  1  0  0  0  0 
  4  5  1  0  0  0  0 
  5  6  1  0  0  0  0 
  6  7  1  0  0  0  0 
  7  8  1  0  0  0  0 
  8  9  1  0  0  0  0 
  9 10  1  0  0  0  0 
 10 11  1  0  0  0  0 
 11 12  1  0  0  0  0 
 12 13  1  0  0  0  0 
 13 14  1  0  0  0  0 
 14 15  1  0  0  0  0 
 15 16  1  0  0  0  0 
 16 17  1  0  0  0  0 
 17 18  1  0  0  0  0 
 18 19  1  0  0  0  0 
 19 20  1  0  0  0  0 
 20 21  1  0  0  0  0 
M  END
> <Name>
5,8,11,14,17-Pentaoxaheneicosane

> <Source>
DougDB3DMolFile

> <Tox>
1.673

> <CAS>
112-98-1

$$$$

  CDK

 25 28  0  0  0  0  0  0  0  0999 V2000
    3.4289   -3.9501    0.0000 C   0  0  0  0  0  0  0  0  0  0  0  0
    4.5718   -4.6084    0.0000 C   0  0  0  0  0  0  0  0  0  0  0  0
    3.4289   -2.6334    0.0000 C   0  0  0  0  0  0  0  0  0  0  0  0
    2.2768   -4.6084    0.0000 C   0  0  0  0  0  0  0  0  0  0  0  0
    5.7239   -3.9501    0.0000 N   0  0  0  0  0  0  0  0  0  0  0  0
    4.5718   -5.9342    0.0000 C   0  0  0  0  0  0  0  0  0  0  0  0
    4.5718   -1.9750    0.0000 C   0  0  0  0  0  0  0  0  0  0  0  0
    2.2768   -5.9342    0.0000 C   0  0  0  0  0  0  0  0  0  0  0  0
    1.1521   -3.9501    0.0000 C   0  0  0  0  0  0  0  0  0  0  0  0
    6.8669   -4.6084    0.0000 C   0  0  0  0  0  0  0  0  0  0  0  0
    5.7239   -2.6334    0.0000 C   0  0  0  0  0  0  0  0  0  0  0  0
    3.4289   -6.5926    0.0000 C   0  0  0  0  0  0  0  0  0  0  0  0
    4.5718   -0.6401    0.0000 C   0  0  0  0  0  0  0  0  0  0  0  0
    1.1521   -6.5926    0.0000 C   0  0  0  0  0  0  0  0  0  0  0  0
    0.0000   -4.6084    0.0000 C   0  0  0  0  0  0  0  0  0  0  0  0
    3.0814   -7.8727    0.0000 C   0  0  0  0  0  0  0  0  0  0  0  0
    5.7239   -0.0000    0.0000 N   0  0  0  0  0  0  0  0  0  0  0  0
    3.4289   -0.0000    0.0000 O   0  0  0  0  0  0  0  0  0  0  0  0
    1.4904   -7.8727    0.0000 N   0  0  0  0  0  0  0  0  0  0  0  0
    0.0000   -5.9342    0.0000 C   0  0  0  0  0  0  0  0  0  0  0  0
    6.8669   -0.6401    0.0000 C   0  0  0  0  0  0  0  0  0  0  0  0
    8.0190   -0.0000    0.0000 C   0  0  0  0  0  0  0  0  0  0  0  0
    6.8669   -1.9750    0.0000 C   0  0  0  0  0  0  0  0  0  0  0  0
    9.1436   -0.6401    0.0000 C   0  0  0  0  0  0  0  0  0  0  0  0
    8.0190   -2.6334    0.0000 O   0  0  0  0  0  0  0  0  0  0  0  0
  1  2  1  0  0  0  0 
  1  3  2  0  0  0  0 
  1  4  1  0  0  0  0 
  2  5  1  0  0  0  0 
  2  6  1  0  0  0  0 
  3  7  1  0  0  0  0 
  4  8  2  0  0  0  0 
  4  9  1  0  0  0  0 
  5 10  1  0  0  0  0 
  5 11  1  0  0  0  0 
 12  6  1  0  0  0  0 
  7 11  1  0  0  0  0 
  7 13  1  1  0  0  0 
 12  8  1  0  0  0  0 
  8 14  1  0  0  0  0 
  9 15  2  0  0  0  0 
 12 16  2  0  0  0  0 
 13 17  1  0  0  0  0 
 13 18  2  0  0  0  0 
 19 14  1  0  0  0  0 
 14 20  2  0  0  0  0 
 15 20  1  0  0  0  0 
 16 19  1  0  0  0  0 
 17 21  1  0  0  0  0 
 21 22  1  0  0  0  0 
 21 23  1  1  0  0  0 
 22 24  1  0  0  0  0 
 23 25  1  0  0  0  0 
M  END
> <Name>
Ergoline-8-carboxamide, 9,10-didehydro-N-(1-(hydroxymethyl)propyl)-6-methyl-, (8beta(S))-

> <Source>
DSSTox2DMolFile

> <Tox>
3.562

> <CAS>
113-42-8

$$$$

  CDK

 15 15  0  0  0  0  0  0  0  0999 V2000
    5.3224   -1.1543    0.0000 C   0  0  0  0  0  0  0  0  0  0  0  0
    3.9884   -1.1543    0.0000 C   0  0  0  0  0  0  0  0  0  0  0  0
    3.3248   -0.0000    0.0000 C   0  0  0  0  0  0  0  0  0  0  0  0
    3.3248   -2.3018    0.0000 O   0  0  0  0  0  0  0  0  0  0  0  0
    3.9884   -3.4561    0.0000 C   0  0  0  0  0  0  0  0  0  0  0  0
    5.3224   -3.4561    0.0000 C   0  0  0  0  0  0  0  0  0  0  0  0
    3.3248   -4.6105    0.0000 C   0  0  0  0  0  0  0  0  0  0  0  0
    5.9860   -4.6105    0.0000 C   0  0  0  0  0  0  0  0  0  0  0  0
    3.9884   -5.7579    0.0000 C   0  0  0  0  0  0  0  0  0  0  0  0
    1.9976   -4.6105    0.0000 O   0  0  0  0  0  0  0  0  0  0  0  0
    5.3224   -5.7579    0.0000 C   0  0  0  0  0  0  0  0  0  0  0  0
    1.3272   -5.7579    0.0000 C   0  0  0  0  0  0  0  0  0  0  0  0
    0.0000   -5.7579    0.0000 O   0  0  0  0  0  0  0  0  0  0  0  0
    1.9976   -6.9123    0.0000 N   0  0  0  0  0  0  0  0  0  0  0  0
    3.3248   -6.9123    0.0000 C   0  0  0  0  0  0  0  0  0  0  0  0
  1  2  1  0  0  0  0 
  2  3  1  0  0  0  0 
  2  4  1  0  0  0  0 
  4  5  1  0  0  0  0 
  5  6  2  0  0  0  0 
  5  7  1  0  0  0  0 
  6  8  1  0  0  0  0 
  9  7  2  0  0  0  0 
  7 10  1  0  0  0  0 
  8 11  2  0  0  0  0 
 11  9  1  0  0  0  0 
 10 12  1  0  0  0  0 
 12 13  2  0  0  0  0 
 12 14  1  0  0  0  0 
 14 15  1  0  0  0  0 
M  END
> <Name>
Carbamic acid, methyl-, o-isopropoxyphenyl ester

> <Source>
DSSTox2DMolFile

> <Tox>
3.708

> <CAS>
114-26-1

$$$$

  CDK

 19 21  0  0  0  0  0  0  0  0999 V2000
    1.8155   -4.4809    0.0000 O   0  0  0  0  0  0  0  0  0  0  0  0
    1.2461   -3.4329    0.0000 S   0  0  0  0  0  0  0  0  0  0  0  0
    2.9873   -4.6872    0.0000 C   0  0  0  0  0  0  0  0  0  0  0  0
    1.7082   -2.3436    0.0000 O   0  0  0  0  0  0  0  0  0  0  0  0
    0.0000   -3.2101    0.0000 O   0  0  0  0  0  0  0  0  0  0  0  0
    3.8703   -3.9033    0.0000 C   0  0  0  0  0  0  0  0  0  0  0  0
    2.8552   -2.0218    0.0000 C   0  0  0  0  0  0  0  0  0  0  0  0
    3.8208   -2.7150    0.0000 C   0  0  0  0  0  0  0  0  0  0  0  0
    5.3639   -3.2101    0.0000 C   0  0  0  0  0  0  0  0  0  0  0  0
    5.5124   -1.9062    0.0000 C   0  0  0  0  0  0  0  0  0  0  0  0
    6.9483   -3.8455    0.0000 C   0  0  0  0  0  0  0  0  0  0  0  0
    4.6377   -0.7509    0.0000 C   0  0  0  0  0  0  0  0  0  0  0  0
    4.9100   -4.1013    0.0000 Cl  0  0  0  0  0  0  0  0  0  0  0  0
    7.2206   -2.5417    0.0000 C   0  0  0  0  0  0  0  0  0  0  0  0
    6.3789   -1.3369    0.0000 Cl  0  0  0  0  0  0  0  0  0  0  0  0
    7.4517   -4.5965    0.0000 Cl  0  0  0  0  0  0  0  0  0  0  0  0
    5.1659   -0.0000    0.0000 Cl  0  0  0  0  0  0  0  0  0  0  0  0
    3.8785   -0.1238    0.0000 Cl  0  0  0  0  0  0  0  0  0  0  0  0
    8.2522   -2.1373    0.0000 Cl  0  0  0  0  0  0  0  0  0  0  0  0
  1  2  1  0  0  0  0 
  1  3  1  0  0  0  0 
  2  4  1  0  0  0  0 
  2  5  2  0  0  0  0 
  3  6  1  0  0  0  0 
  4  7  1  0  0  0  0 
  6  8  1  0  0  0  0 
  6  9  1  0  0  0  0 
  8  7  1  0  0  0  0 
  8 10  1  0  0  0  0 
  9 11  1  0  0  0  0 
  9 12  1  0  0  0  0 
  9 13  1  0  0  0  0 
 10 14  1  0  0  0  0 
 10 12  1  0  0  0  0 
 10 15  1  0  0  0  0 
 11 14  2  0  0  0  0 
 11 16  1  0  0  0  0 
 12 17  1  0  0  0  0 
 12 18  1  0  0  0  0 
 14 19  1  0  0  0  0 
M  END
> <Name>
6,9-Methano-2,4,3-benzodioxathiepin, 6,7,8,9,10,10-hexachloro-1,5,5a,6,9,9a-hexahydro-, 3-oxide

> <Source>
DSSTox2DMolFile

> <Tox>
4.354

> <CAS>
115-29-7

$$$$

  CDK

 30 33  0  0  0  0  0  0  0  0999 V2000
    0.0000   -4.3744    0.0000 C   0  0  0  0  0  0  0  0  0  0  0  0
    1.1470   -3.7110    0.0000 C   0  0  0  0  0  0  0  0  0  0  0  0
    0.0000   -5.7014    0.0000 C   0  0  0  0  0  0  0  0  0  0  0  0
    2.3053   -4.3744    0.0000 C   0  0  0  0  0  0  0  0  0  0  0  0
    1.1470   -6.3649    0.0000 C   0  0  0  0  0  0  0  0  0  0  0  0
    2.3053   -5.7014    0.0000 C   0  0  0  0  0  0  0  0  0  0  0  0
    1.4282   -7.6693    0.0000 N   0  0  0  0  0  0  0  0  0  0  0  0
    3.2949   -6.5898    0.0000 C   0  0  0  0  0  0  0  0  0  0  0  0
    2.7551   -7.8043    0.0000 C   0  0  0  0  0  0  0  0  0  0  0  0
    4.0708   -5.5215    0.0000 C   0  0  0  0  0  0  0  0  0  0  0  0
    4.4419   -7.2533    0.0000 C   0  0  0  0  0  0  0  0  0  0  0  0
    3.4186   -8.9626    0.0000 O   0  0  0  0  0  0  0  0  0  0  0  0
    3.5310   -4.3070    0.0000 C   0  0  0  0  0  0  0  0  0  0  0  0
    5.3978   -5.6564    0.0000 C   0  0  0  0  0  0  0  0  0  0  0  0
    5.5889   -6.5898    0.0000 C   0  0  0  0  0  0  0  0  0  0  0  0
    4.4419   -8.5915    0.0000 C   0  0  0  0  0  0  0  0  0  0  0  0
    4.3182   -3.2274    0.0000 C   0  0  0  0  0  0  0  0  0  0  0  0
    6.1737   -4.5769    0.0000 C   0  0  0  0  0  0  0  0  0  0  0  0
    6.7472   -7.2533    0.0000 C   0  0  0  0  0  0  0  0  0  0  0  0
    5.5889   -9.2549    0.0000 C   0  0  0  0  0  0  0  0  0  0  0  0
    5.6339   -3.3624    0.0000 C   0  0  0  0  0  0  0  0  0  0  0  0
    6.7472   -8.5915    0.0000 C   0  0  0  0  0  0  0  0  0  0  0  0
    6.4211   -2.2941    0.0000 O   0  0  0  0  0  0  0  0  0  0  0  0
    7.8942   -9.2549    0.0000 O   0  0  0  0  0  0  0  0  0  0  0  0
    5.8701   -1.0796    0.0000 C   0  0  0  0  0  0  0  0  0  0  0  0
    7.8942  -10.5819    0.0000 C   0  0  0  0  0  0  0  0  0  0  0  0
    4.5544   -0.9334    0.0000 O   0  0  0  0  0  0  0  0  0  0  0  0
    6.6573   -0.0000    0.0000 C   0  0  0  0  0  0  0  0  0  0  0  0
    9.0525  -11.2454    0.0000 C   0  0  0  0  0  0  0  0  0  0  0  0
    6.7472  -11.2454    0.0000 O   0  0  0  0  0  0  0  0  0  0  0  0
  1  2  2  0  0  0  0 
  1  3  1  0  0  0  0 
  2  4  1  0  0  0  0 
  5  3  2  0  0  0  0 
  4  6  2  0  0  0  0 
  6  5  1  0  0  0  0 
  5  7  1  0  0  0  0 
  6  8  1  0  0  0  0 
  7  9  1  0  0  0  0 
  9  8  1  0  0  0  0 
  8 10  1  0  0  0  0 
  8 11  1  0  0  0  0 
  9 12  2  0  0  0  0 
 10 13  2  0  0  0  0 
 10 14  1  0  0  0  0 
 11 15  2  0  0  0  0 
 11 16  1  0  0  0  0 
 13 17  1  0  0  0  0 
 18 14  2  0  0  0  0 
 15 19  1  0  0  0  0 
 20 16  2  0  0  0  0 
 17 21  2  0  0  0  0 
 21 18  1  0  0  0  0 
 19 22  2  0  0  0  0 
 22 20  1  0  0  0  0 
 21 23  1  0  0  0  0 
 22 24  1  0  0  0  0 
 23 25  1  0  0  0  0 
 24 26  1  0  0  0  0 
 25 27  2  0  0  0  0 
 25 28  1  0  0  0  0 
 26 29  1  0  0  0  0 
 26 30  2  0  0  0  0 
M  END
> <Name>
2-Indolinone, 3,3-bis(p-hydroxyphenyl)-, diacetate (ester) (8CI)

> <Source>
DSSTox2DMolFile

> <Tox>
2.325

> <CAS>
115-33-3

$$$$

  CDK

 23 27  0  0  0  0  0  0  0  0999 V2000
    3.0073    0.8328    0.0000 O   0  0  0  0  0  0  0  0  0  0  0  0
    3.3774    0.0000    0.0000 C   0  0  0  0  0  0  0  0  0  0  0  0
    3.5162    1.5730    0.0000 C   0  0  0  0  0  0  0  0  0  0  0  0
    3.1461    2.4521    0.0000 C   0  0  0  0  0  0  0  0  0  0  0  0
    4.4415    1.4805    0.0000 C   0  0  0  0  0  0  0  0  0  0  0  0
    3.7013    3.1923    0.0000 C   0  0  0  0  0  0  0  0  0  0  0  0
    2.2670    2.7297    0.0000 O   0  0  0  0  0  0  0  0  0  0  0  0
    4.9967    2.2670    0.0000 C   0  0  0  0  0  0  0  0  0  0  0  0
    3.1461    3.9326    0.0000 C   0  0  0  0  0  0  0  0  0  0  0  0
    4.6266    3.0998    0.0000 C   0  0  0  0  0  0  0  0  0  0  0  0
    3.3311    4.0251    0.0000 C   0  0  0  0  0  0  0  0  0  0  0  0
    2.2670    3.6550    0.0000 C   0  0  0  0  0  0  0  0  0  0  0  0
    3.3311    4.8579    0.0000 C   0  0  0  0  0  0  0  0  0  0  0  0
    5.1818    3.8401    0.0000 C   0  0  0  0  0  0  0  0  0  0  0  0
    3.8863    4.7654    0.0000 C   0  0  0  0  0  0  0  0  0  0  0  0
    1.5730    4.2565    0.0000 C   0  0  0  0  0  0  0  0  0  0  0  0
    6.1071    3.7475    0.0000 C   0  0  0  0  0  0  0  0  0  0  0  0
    2.6834    5.4594    0.0000 C   0  0  0  0  0  0  0  0  0  0  0  0
    4.8116    4.6728    0.0000 N   0  0  0  0  0  0  0  0  0  0  0  0
    0.6940    3.9789    0.0000 O   0  0  0  0  0  0  0  0  0  0  0  0
    1.8044    5.1818    0.0000 C   0  0  0  0  0  0  0  0  0  0  0  0
    5.3206    5.4131    0.0000 C   0  0  0  0  0  0  0  0  0  0  0  0
    0.0000    4.5803    0.0000 C   0  0  0  0  0  0  0  0  0  0  0  0
  1  2  1  0  0  0  0 
  1  3  1  0  0  0  0 
  4  3  1  0  0  0  0 
  3  5  2  0  0  0  0 
  4  6  1  0  0  0  0 
  7  4  1  0  0  0  0 
  5  8  1  0  0  0  0 
  9  6  1  0  0  0  0 
  6 10  1  0  0  0  0 
 11  6  1  0  0  0  0 
 12  7  1  0  0  0  0 
  8 10  2  0  0  0  0 
  9 12  2  0  0  0  0 
 13  9  1  0  0  0  0 
 10 14  1  0  0  0  0 
 15 11  1  0  0  0  0 
 16 12  1  0  0  0  0 
 17 13  1  0  0  0  0 
 13 18  2  0  0  0  0 
 17 14  1  0  0  0  0 
 14 19  1  0  0  0  0 
 19 15  1  0  0  0  0 
 16 20  1  0  0  0  0 
 21 16  2  0  0  0  0 
 18 21  1  0  0  0  0 
 19 22  1  0  0  0  0 
 20 23  1  0  0  0  0 
M  END
> <Name>
Morphinan, 6,7,8,14-tetradehydro-4,5-alpha-epoxy-3,6-dimethoxy-17-methyl-

> <Source>
NIST2DMolFile

> <Tox>
3.436

> <CAS>
115-37-7

$$$$

  CDK

 16 16  0  0  0  0  0  0  0  0999 V2000
    2.3001   -2.8543    0.0000 C   0  0  0  0  0  0  0  0  0  0  0  0
    2.3001   -1.5242    0.0000 O   0  0  0  0  0  0  0  0  0  0  0  0
    3.4571   -3.5194    0.0000 C   0  0  0  0  0  0  0  0  0  0  0  0
    1.1500   -3.5194    0.0000 N   0  0  0  0  0  0  0  0  0  0  0  0
    4.7665   -3.7480    0.0000 C   0  0  0  0  0  0  0  0  0  0  0  0
    3.9074   -2.2724    0.0000 C   0  0  0  0  0  0  0  0  0  0  0  0
    3.4571   -4.8496    0.0000 C   0  0  0  0  0  0  0  0  0  0  0  0
    1.1500   -4.8496    0.0000 C   0  0  0  0  0  0  0  0  0  0  0  0
    5.6186   -2.7296    0.0000 C   0  0  0  0  0  0  0  0  0  0  0  0
    5.2168   -2.0368    0.0000 C   0  0  0  0  0  0  0  0  0  0  0  0
    3.0552   -1.2540    0.0000 C   0  0  0  0  0  0  0  0  0  0  0  0
    4.6071   -5.5147    0.0000 O   0  0  0  0  0  0  0  0  0  0  0  0
    2.3001   -5.5147    0.0000 N   0  0  0  0  0  0  0  0  0  0  0  0
    0.0000   -5.5147    0.0000 O   0  0  0  0  0  0  0  0  0  0  0  0
    6.9280   -2.9652    0.0000 C   0  0  0  0  0  0  0  0  0  0  0  0
    3.5125   -0.0000    0.0000 C   0  0  0  0  0  0  0  0  0  0  0  0
  1  2  2  0  0  0  0 
  1  3  1  0  0  0  0 
  1  4  1  0  0  0  0 
  3  5  1  0  0  0  0 
  3  6  1  0  0  0  0 
  3  7  1  0  0  0  0 
  8  4  1  0  0  0  0 
  5  9  1  0  0  0  0 
  6 10  1  0  0  0  0 
  6 11  1  0  0  0  0 
  7 12  2  0  0  0  0 
  7 13  1  0  0  0  0 
 13  8  1  0  0  0  0 
  8 14  2  0  0  0  0 
  9 15  2  0  0  0  0 
 11 16  1  0  0  0  0 
M  END
> <Name>
2,4,6(1H,3H,5H)-Pyrimidinetrione, 5-(1-methypropyl)-5-(2-propenyl)-

> <Source>
DSSTox2DMolFile

> <Tox>
3.591

> <CAS>
115-44-6

$$$$

  CDK

 16 18  0  0  0  0  0  0  0  0999 V2000
    0.0000    0.0000    0.0000 C   0  0  0  0  0  0  0  0  0  0  0  0
    0.3959    0.7087    0.0000 C   0  0  0  0  0  0  0  0  0  0  0  0
    0.8357    0.4203    0.0000 C   0  0  0  0  0  0  0  0  0  0  0  0
    1.9353    0.6940    0.0000 C   0  0  0  0  0  0  0  0  0  0  0  0
    1.0800    1.1925    0.0000 C   0  0  0  0  0  0  0  0  0  0  0  0
    0.9090    2.0722    0.0000 C   0  0  0  0  0  0  0  0  0  0  0  0
    1.6176    0.0196    0.0000 C   0  0  0  0  0  0  0  0  0  0  0  0
    2.0135    1.4466    0.0000 C   0  0  0  0  0  0  0  0  0  0  0  0
    0.0684    2.5561    0.0000 C   0  0  0  0  0  0  0  0  0  0  0  0
    1.7447    2.5609    0.0000 C   0  0  0  0  0  0  0  0  0  0  0  0
    2.5854    2.0817    0.0000 C   0  0  0  0  0  0  0  0  0  0  0  0
    3.4208    2.5703    0.0000 C   0  0  0  0  0  0  0  0  0  0  0  0
    4.2614    2.0911    0.0000 C   0  0  0  0  0  0  0  0  0  0  0  0
    5.0968    2.5795    0.0000 C   0  0  0  0  0  0  0  0  0  0  0  0
    4.2668    1.1234    0.0000 C   0  0  0  0  0  0  0  0  0  0  0  0
    5.1076    0.6443    0.0000 O   0  0  0  0  0  0  0  0  0  0  0  0
  1  2  1  0  0  0  0 
  3  1  1  0  0  0  0 
  2  4  1  0  0  0  0 
  2  5  1  0  0  0  0 
  6  3  1  0  0  0  0 
  7  3  1  0  0  0  0 
  5  4  1  0  0  0  0 
  4  7  1  0  0  0  0 
  5  8  1  6  0  0  0 
  6  5  1  0  0  0  0 
  6  9  1  0  0  0  0 
  6 10  1  0  0  0  0 
 10 11  1  0  0  0  0 
 11 12  1  0  0  0  0 
 12 13  2  0  0  0  0 
 13 14  1  0  0  0  0 
 13 15  1  0  0  0  0 
 15 16  1  0  0  0  0 
M  END
> <Name>
2-Penten-1-ol, 5-(2,3-dimethyltricyclo(2.2.1.0(sup 2,6))hept-3-yl)-2-methyl-, (R(Z))-

> <Source>
NIST2DMolFile

> <Tox>
1.763

> <CAS>
115-71-9

$$$$

  CDK

  9  8  0  0  0  0  0  0  0  0999 V2000
    1.6330   -0.0000    0.0000 C   0  0  0  0  0  0  0  0  0  0  0  0
    2.3064   -1.1532    0.0000 C   0  0  0  0  0  0  0  0  0  0  0  0
    0.3045   -0.0000    0.0000 O   0  0  0  0  0  0  0  0  0  0  0  0
    3.4597   -0.4982    0.0000 C   0  0  0  0  0  0  0  0  0  0  0  0
    2.9615   -2.3064    0.0000 C   0  0  0  0  0  0  0  0  0  0  0  0
    1.1532   -1.8267    0.0000 C   0  0  0  0  0  0  0  0  0  0  0  0
    4.6129   -1.1532    0.0000 O   0  0  0  0  0  0  0  0  0  0  0  0
    2.3064   -3.4597    0.0000 O   0  0  0  0  0  0  0  0  0  0  0  0
    0.0000   -1.1532    0.0000 O   0  0  0  0  0  0  0  0  0  0  0  0
  1  2  1  0  0  0  0 
  1  3  1  0  0  0  0 
  2  4  1  0  0  0  0 
  2  5  1  0  0  0  0 
  2  6  1  0  0  0  0 
  4  7  1  0  0  0  0 
  5  8  1  0  0  0  0 
  6  9  1  0  0  0  0 
M  END
> <Name>
1,3-Propanediol, 2,2-bis(hydroxymethyl)-

> <Source>
DSSTox2DMolFile

> <Tox>
0.844

> <CAS>
115-77-5

$$$$

  CDK

 23 25  0  0  0  0  0  0  0  0999 V2000
    1.9924   -6.9547    0.0000 C   0  0  0  0  0  0  0  0  0  0  0  0
    0.6610   -6.9547    0.0000 C   0  0  0  0  0  0  0  0  0  0  0  0
    2.6627   -5.8002    0.0000 C   0  0  0  0  0  0  0  0  0  0  0  0
    0.0000   -5.8002    0.0000 C   0  0  0  0  0  0  0  0  0  0  0  0
    1.9924   -4.6551    0.0000 C   0  0  0  0  0  0  0  0  0  0  0  0
    3.9940   -5.8002    0.0000 O   0  0  0  0  0  0  0  0  0  0  0  0
    0.6610   -4.6551    0.0000 C   0  0  0  0  0  0  0  0  0  0  0  0
    4.6551   -4.6551    0.0000 P   0  0  0  0  0  0  0  0  0  0  0  0
    5.8095   -5.3161    0.0000 O   0  0  0  0  0  0  0  0  0  0  0  0
    3.5006   -3.9847    0.0000 O   0  0  0  0  0  0  0  0  0  0  0  0
    5.3161   -3.5006    0.0000 O   0  0  0  0  0  0  0  0  0  0  0  0
    3.5006   -2.6534    0.0000 C   0  0  0  0  0  0  0  0  0  0  0  0
    6.6474   -3.5006    0.0000 C   0  0  0  0  0  0  0  0  0  0  0  0
    2.3555   -1.9924    0.0000 C   0  0  0  0  0  0  0  0  0  0  0  0
    4.6551   -1.9924    0.0000 C   0  0  0  0  0  0  0  0  0  0  0  0
    7.3178   -2.3462    0.0000 C   0  0  0  0  0  0  0  0  0  0  0  0
    7.3178   -4.6551    0.0000 C   0  0  0  0  0  0  0  0  0  0  0  0
    2.3555   -0.6610    0.0000 C   0  0  0  0  0  0  0  0  0  0  0  0
    4.6551   -0.6610    0.0000 C   0  0  0  0  0  0  0  0  0  0  0  0
    8.6491   -2.3462    0.0000 C   0  0  0  0  0  0  0  0  0  0  0  0
    8.6491   -4.6551    0.0000 C   0  0  0  0  0  0  0  0  0  0  0  0
    3.5006   -0.0000    0.0000 C   0  0  0  0  0  0  0  0  0  0  0  0
    9.3101   -3.5006    0.0000 C   0  0  0  0  0  0  0  0  0  0  0  0
  1  2  2  0  0  0  0 
  1  3  1  0  0  0  0 
  2  4  1  0  0  0  0 
  5  3  2  0  0  0  0 
  3  6  1  0  0  0  0 
  4  7  2  0  0  0  0 
  7  5  1  0  0  0  0 
  6  8  1  0  0  0  0 
  8  9  2  0  0  0  0 
  8 10  1  0  0  0  0 
  8 11  1  0  0  0  0 
 10 12  1  0  0  0  0 
 11 13  1  0  0  0  0 
 12 14  2  0  0  0  0 
 12 15  1  0  0  0  0 
 13 16  2  0  0  0  0 
 13 17  1  0  0  0  0 
 14 18  1  0  0  0  0 
 19 15  2  0  0  0  0 
 16 20  1  0  0  0  0 
 21 17  2  0  0  0  0 
 18 22  2  0  0  0  0 
 22 19  1  0  0  0  0 
 20 23  2  0  0  0  0 
 23 21  1  0  0  0  0 
M  END
> <Name>
Phosphoric acid, triphenyl ester

> <Source>
DSSTox2DMolFile

> <Tox>
1.970

> <CAS>
115-86-6

$$$$

  CDK

 14 13  0  0  0  0  0  0  0  0999 V2000
    3.9465   -2.8373    0.0000 O   0  0  0  0  0  0  0  0  0  0  0  0
    4.6085   -3.9895    0.0000 P   0  0  0  0  0  0  0  0  0  0  0  0
    5.7607   -3.3274    0.0000 O   0  0  0  0  0  0  0  0  0  0  0  0
    5.2706   -5.1416    0.0000 O   0  0  0  0  0  0  0  0  0  0  0  0
    3.4564   -4.6515    0.0000 O   0  0  0  0  0  0  0  0  0  0  0  0
    5.7607   -1.9947    0.0000 C   0  0  0  0  0  0  0  0  0  0  0  0
    6.6033   -5.1416    0.0000 C   0  0  0  0  0  0  0  0  0  0  0  0
    2.3043   -3.9895    0.0000 C   0  0  0  0  0  0  0  0  0  0  0  0
    4.6085   -1.3327    0.0000 C   0  0  0  0  0  0  0  0  0  0  0  0
    7.2653   -3.9895    0.0000 C   0  0  0  0  0  0  0  0  0  0  0  0
    1.1521   -4.6515    0.0000 C   0  0  0  0  0  0  0  0  0  0  0  0
    4.6085   -0.0000    0.0000 Cl  0  0  0  0  0  0  0  0  0  0  0  0
    8.5980   -3.9895    0.0000 Cl  0  0  0  0  0  0  0  0  0  0  0  0
    0.0000   -3.9895    0.0000 Cl  0  0  0  0  0  0  0  0  0  0  0  0
  1  2  2  0  0  0  0 
  2  3  1  0  0  0  0 
  2  4  1  0  0  0  0 
  2  5  1  0  0  0  0 
  3  6  1  0  0  0  0 
  4  7  1  0  0  0  0 
  5  8  1  0  0  0  0 
  6  9  1  0  0  0  0 
  7 10  1  0  0  0  0 
  8 11  1  0  0  0  0 
  9 12  1  0  0  0  0 
 10 13  1  0  0  0  0 
 11 14  1  0  0  0  0 
M  END
> <Name>
Ethanol, 2-chloro-, phosphate (3:1)

> <Source>
DSSTox2DMolFile

> <Tox>
2.366

> <CAS>
115-96-8

$$$$

  CDK

 13 12  0  0  0  0  0  0  0  0999 V2000
    7.0801    3.4567    0.0000 S   0  0  0  0  0  0  0  0  0  0  0  0
    7.0801    2.0824    0.0000 P   0  0  0  0  0  0  0  0  0  0  0  0
    5.8723    1.3744    0.0000 S   0  0  0  0  0  0  0  0  0  0  0  0
    8.1213    1.0828    0.0000 O   0  0  0  0  0  0  0  0  0  0  0  0
    8.4544    1.7075    0.0000 O   0  0  0  0  0  0  0  0  0  0  0  0
    4.6645    2.0824    0.0000 C   0  0  0  0  0  0  0  0  0  0  0  0
    9.4540    1.4160    0.0000 C   0  0  0  0  0  0  0  0  0  0  0  0
    9.4540    2.7071    0.0000 C   0  0  0  0  0  0  0  0  0  0  0  0
    3.4567    1.3744    0.0000 C   0  0  0  0  0  0  0  0  0  0  0  0
    2.2490    2.0824    0.0000 N   0  0  0  0  0  0  0  0  0  0  0  0
    3.4567    0.0000    0.0000 O   0  0  0  0  0  0  0  0  0  0  0  0
    1.0828    1.3744    0.0000 C   0  0  0  0  0  0  0  0  0  0  0  0
    0.0000    2.0407    0.0000 C   0  0  0  0  0  0  0  0  0  0  0  0
  1  2  2  0  0  0  0 
  2  3  1  0  0  0  0 
  2  4  1  0  0  0  0 
  2  5  1  0  0  0  0 
  3  6  1  0  0  0  0 
  4  7  1  0  0  0  0 
  5  8  1  0  0  0  0 
  6  9  1  0  0  0  0 
  9 10  1  0  0  0  0 
  9 11  2  0  0  0  0 
 10 12  1  0  0  0  0 
 12 13  1  0  0  0  0 
M  END
> <Name>
Phosphorodithioic acid, O,O-dimethyl ester, S-ester with N-ethyl-2-mercaptoacetamide

> <Source>
IndexNet2DMolFile

> <Tox>
3.289

> <CAS>
116-01-8

$$$$

  CDK

  5  4  0  0  0  0  0  0  0  0999 V2000
   -0.7271    0.7360   -0.0002 C   0  0  0  0  0  0  0  0  0  0  0  0
    0.5422   -0.1047    0.0000 C   0  0  0  0  0  0  0  0  0  0  0  0
   -1.9466    0.0486    0.0002 O   0  0  0  0  0  0  0  0  0  0  0  0
    1.8232    0.6793    0.0002 C   0  0  0  0  0  0  0  0  0  0  0  0
    0.5147   -1.3210   -0.0001 O   0  0  0  0  0  0  0  0  0  0  0  0
  1  2  1  0  0  0  0 
  1  3  1  0  0  0  0 
  2  4  1  0  0  0  0 
  2  5  2  0  0  0  0 
M  END
> <Name>
2-Propanone, 1-hydroxy-

> <Source>
DougDB3DMolFile

> <Tox>
1.527

> <CAS>
116-09-6

$$$$

  CDK

  5  4  0  0  0  0  0  0  0  0999 V2000
    0.4874    1.4568    0.0003 C   0  0  0  0  0  0  0  0  0  0  0  0
    0.4837    0.1191    0.0006 C   0  0  0  0  0  0  0  0  0  0  0  0
    1.7232   -0.7130   -0.0010 C   0  0  0  0  0  0  0  0  0  0  0  0
   -0.6343   -0.6935    0.0019 O   0  0  0  0  0  0  0  0  0  0  0  0
   -1.8907   -0.0632   -0.0015 C   0  0  0  0  0  0  0  0  0  0  0  0
  1  2  2  0  0  0  0 
  2  3  1  0  0  0  0 
  2  4  1  0  0  0  0 
  4  5  1  0  0  0  0 
M  END
> <Name>
Isopropenyl methyl ether

> <Source>
DougDB3DMolFile

> <Tox>
1.709

> <CAS>
116-11-0

$$$$

  CDK

 10  9  0  0  0  0  0  0  0  0999 V2000
    0.0000   -2.3045    0.0000 O   0  0  0  0  0  0  0  0  0  0  0  0
    1.3320   -2.3045    0.0000 C   0  0  0  0  0  0  0  0  0  0  0  0
    1.9957   -1.1523    0.0000 C   0  0  0  0  0  0  0  0  0  0  0  0
    1.9957   -3.4568    0.0000 C   0  0  0  0  0  0  0  0  0  0  0  0
    3.1480   -1.8160    0.0000 Cl  0  0  0  0  0  0  0  0  0  0  0  0
    0.8435   -0.4886    0.0000 Cl  0  0  0  0  0  0  0  0  0  0  0  0
    2.6594   -0.0000    0.0000 Cl  0  0  0  0  0  0  0  0  0  0  0  0
    3.1480   -2.7931    0.0000 Cl  0  0  0  0  0  0  0  0  0  0  0  0
    2.6594   -4.6091    0.0000 Cl  0  0  0  0  0  0  0  0  0  0  0  0
    0.8435   -4.1205    0.0000 Cl  0  0  0  0  0  0  0  0  0  0  0  0
  1  2  2  0  0  0  0 
  2  3  1  0  0  0  0 
  2  4  1  0  0  0  0 
  3  5  1  0  0  0  0 
  3  6  1  0  0  0  0 
  3  7  1  0  0  0  0 
  4  8  1  0  0  0  0 
  4  9  1  0  0  0  0 
  4 10  1  0  0  0  0 
M  END
> <Name>
2-Propanone, 1,1,1,3,3,3-hexachloro-

> <Source>
DSSTox2DMolFile

> <Tox>
3.043

> <CAS>
116-16-5

$$$$

  CDK

 22 24  0  0  0  0  0  0  0  0999 V2000
    4.6008   -0.0000    0.0000 O   0  0  0  0  0  0  0  0  0  0  0  0
    4.6008   -1.3264    0.0000 C   0  0  0  0  0  0  0  0  0  0  0  0
    3.4506   -1.9895    0.0000 C   0  0  0  0  0  0  0  0  0  0  0  0
    5.7614   -1.9895    0.0000 C   0  0  0  0  0  0  0  0  0  0  0  0
    3.4506   -3.3159    0.0000 C   0  0  0  0  0  0  0  0  0  0  0  0
    2.3004   -1.3264    0.0000 C   0  0  0  0  0  0  0  0  0  0  0  0
    5.7614   -3.3159    0.0000 C   0  0  0  0  0  0  0  0  0  0  0  0
    6.9115   -1.3264    0.0000 O   0  0  0  0  0  0  0  0  0  0  0  0
    2.3004   -3.9894    0.0000 C   0  0  0  0  0  0  0  0  0  0  0  0
    4.6008   -3.9894    0.0000 O   0  0  0  0  0  0  0  0  0  0  0  0
    1.1502   -1.9895    0.0000 C   0  0  0  0  0  0  0  0  0  0  0  0
    2.3004   -0.0000    0.0000 O   0  0  0  0  0  0  0  0  0  0  0  0
    6.9115   -3.9894    0.0000 C   0  0  0  0  0  0  0  0  0  0  0  0
    1.1502   -3.3159    0.0000 C   0  0  0  0  0  0  0  0  0  0  0  0
    8.0617   -3.3159    0.0000 C   0  0  0  0  0  0  0  0  0  0  0  0
    6.9115   -5.3158    0.0000 C   0  0  0  0  0  0  0  0  0  0  0  0
    0.0000   -3.9894    0.0000 O   0  0  0  0  0  0  0  0  0  0  0  0
    9.2119   -3.9894    0.0000 C   0  0  0  0  0  0  0  0  0  0  0  0
    8.0617   -5.9790    0.0000 C   0  0  0  0  0  0  0  0  0  0  0  0
    9.2119   -5.3158    0.0000 C   0  0  0  0  0  0  0  0  0  0  0  0
   10.3621   -3.3159    0.0000 O   0  0  0  0  0  0  0  0  0  0  0  0
   10.3621   -5.9790    0.0000 O   0  0  0  0  0  0  0  0  0  0  0  0
  1  2  2  0  0  0  0 
  2  3  1  0  0  0  0 
  2  4  1  0  0  0  0 
  3  5  2  0  0  0  0 
  3  6  1  0  0  0  0 
  7  4  2  0  0  0  0 
  4  8  1  0  0  0  0 
  5  9  1  0  0  0  0 
  5 10  1  0  0  0  0 
 11  6  2  0  0  0  0 
  6 12  1  0  0  0  0 
 10  7  1  0  0  0  0 
  7 13  1  0  0  0  0 
  9 14  2  0  0  0  0 
 14 11  1  0  0  0  0 
 13 15  2  0  0  0  0 
 13 16  1  0  0  0  0 
 14 17  1  0  0  0  0 
 15 18  1  0  0  0  0 
 19 16  2  0  0  0  0 
 18 20  2  0  0  0  0 
 18 21  1  0  0  0  0 
 20 19  1  0  0  0  0 
 20 22  1  0  0  0  0 
M  END
> <Name>
4H-1-Benzopyran-4-one, 2-(3,4-dihydroxyphenyl)-3,5,7-trihydroxy-

> <Source>
DSSTox2DMolFile

> <Tox>
3.274

> <CAS>
117-39-5

$$$$

  CDK

 14 15  0  0  0  0  0  0  0  0999 V2000
    0.0000   -3.9911    0.0000 O   0  0  0  0  0  0  0  0  0  0  0  0
    1.1489   -3.3269    0.0000 C   0  0  0  0  0  0  0  0  0  0  0  0
    2.3037   -3.9911    0.0000 C   0  0  0  0  0  0  0  0  0  0  0  0
    1.1489   -1.9925    0.0000 C   0  0  0  0  0  0  0  0  0  0  0  0
    3.4526   -3.3269    0.0000 C   0  0  0  0  0  0  0  0  0  0  0  0
    2.3037   -5.3194    0.0000 C   0  0  0  0  0  0  0  0  0  0  0  0
    2.3037   -1.3284    0.0000 C   0  0  0  0  0  0  0  0  0  0  0  0
    0.0000   -1.3284    0.0000 Cl  0  0  0  0  0  0  0  0  0  0  0  0
    4.6074   -3.9911    0.0000 C   0  0  0  0  0  0  0  0  0  0  0  0
    3.4526   -1.9925    0.0000 C   0  0  0  0  0  0  0  0  0  0  0  0
    3.4526   -5.9836    0.0000 C   0  0  0  0  0  0  0  0  0  0  0  0
    2.3037   -0.0000    0.0000 Cl  0  0  0  0  0  0  0  0  0  0  0  0
    4.6074   -5.3194    0.0000 C   0  0  0  0  0  0  0  0  0  0  0  0
    4.6074   -1.3284    0.0000 O   0  0  0  0  0  0  0  0  0  0  0  0
  1  2  2  0  0  0  0 
  2  3  1  0  0  0  0 
  2  4  1  0  0  0  0 
  3  5  2  0  0  0  0 
  3  6  1  0  0  0  0 
  7  4  2  0  0  0  0 
  4  8  1  0  0  0  0 
  5  9  1  0  0  0  0 
  5 10  1  0  0  0  0 
 11  6  2  0  0  0  0 
 10  7  1  0  0  0  0 
  7 12  1  0  0  0  0 
  9 13  2  0  0  0  0 
 10 14  2  0  0  0  0 
 13 11  1  0  0  0  0 
M  END
> <Name>
1,4-Naphthalenedione, 2,3-dichloro-

> <Source>
DSSTox2DMolFile

> <Tox>
3.152

> <CAS>
117-80-6

$$$$

  CDK

 16 17  0  0  0  0  0  0  0  0999 V2000
    1.9965   -3.4571    0.0000 C   0  0  0  0  0  0  0  0  0  0  0  0
    0.6655   -3.4571    0.0000 C   0  0  0  0  0  0  0  0  0  0  0  0
    2.6619   -2.3076    0.0000 C   0  0  0  0  0  0  0  0  0  0  0  0
    0.0000   -2.3076    0.0000 C   0  0  0  0  0  0  0  0  0  0  0  0
    1.9965   -1.1581    0.0000 C   0  0  0  0  0  0  0  0  0  0  0  0
    3.9929   -2.3076    0.0000 C   0  0  0  0  0  0  0  0  0  0  0  0
    0.6655   -1.1581    0.0000 C   0  0  0  0  0  0  0  0  0  0  0  0
    2.6619   -0.0000    0.0000 O   0  0  0  0  0  0  0  0  0  0  0  0
    4.6497   -3.4571    0.0000 O   0  0  0  0  0  0  0  0  0  0  0  0
    4.6497   -1.1581    0.0000 O   0  0  0  0  0  0  0  0  0  0  0  0
    5.9807   -1.1581    0.0000 C   0  0  0  0  0  0  0  0  0  0  0  0
    6.6462   -0.0000    0.0000 C   0  0  0  0  0  0  0  0  0  0  0  0
    6.6462   -2.3076    0.0000 C   0  0  0  0  0  0  0  0  0  0  0  0
    7.9772   -0.0000    0.0000 C   0  0  0  0  0  0  0  0  0  0  0  0
    7.9772   -2.3076    0.0000 C   0  0  0  0  0  0  0  0  0  0  0  0
    8.6426   -1.1581    0.0000 C   0  0  0  0  0  0  0  0  0  0  0  0
  1  2  2  0  0  0  0 
  1  3  1  0  0  0  0 
  2  4  1  0  0  0  0 
  5  3  2  0  0  0  0 
  3  6  1  0  0  0  0 
  4  7  2  0  0  0  0 
  7  5  1  0  0  0  0 
  5  8  1  0  0  0  0 
  6  9  2  0  0  0  0 
  6 10  1  0  0  0  0 
 10 11  1  0  0  0  0 
 11 12  2  0  0  0  0 
 11 13  1  0  0  0  0 
 12 14  1  0  0  0  0 
 15 13  2  0  0  0  0 
 14 16  2  0  0  0  0 
 16 15  1  0  0  0  0 
M  END
> <Name>
Benzoic acid, 2-hydroxy-, phenyl ester

> <Source>
DSSTox2DMolFile

> <Tox>
1.854

> <CAS>
118-55-8

$$$$

  CDK

 12 12  0  0  0  0  0  0  0  0999 V2000
    1.9947   -3.4576    0.0000 C   0  0  0  0  0  0  0  0  0  0  0  0
    0.6649   -3.4576    0.0000 C   0  0  0  0  0  0  0  0  0  0  0  0
    2.6597   -2.3073    0.0000 C   0  0  0  0  0  0  0  0  0  0  0  0
    0.0000   -2.3073    0.0000 C   0  0  0  0  0  0  0  0  0  0  0  0
    1.9947   -1.1569    0.0000 C   0  0  0  0  0  0  0  0  0  0  0  0
    3.9895   -2.3073    0.0000 C   0  0  0  0  0  0  0  0  0  0  0  0
    0.6649   -1.1569    0.0000 C   0  0  0  0  0  0  0  0  0  0  0  0
    2.6597   -0.0000    0.0000 O   0  0  0  0  0  0  0  0  0  0  0  0
    4.6544   -3.4576    0.0000 O   0  0  0  0  0  0  0  0  0  0  0  0
    4.6544   -1.1569    0.0000 O   0  0  0  0  0  0  0  0  0  0  0  0
    5.9842   -1.1569    0.0000 C   0  0  0  0  0  0  0  0  0  0  0  0
    6.6491   -0.0000    0.0000 C   0  0  0  0  0  0  0  0  0  0  0  0
  1  2  2  0  0  0  0 
  1  3  1  0  0  0  0 
  2  4  1  0  0  0  0 
  5  3  2  0  0  0  0 
  3  6  1  0  0  0  0 
  4  7  2  0  0  0  0 
  7  5  1  0  0  0  0 
  5  8  1  0  0  0  0 
  6  9  2  0  0  0  0 
  6 10  1  0  0  0  0 
 10 11  1  0  0  0  0 
 11 12  1  0  0  0  0 
M  END
> <Name>
Benzoic acid, 2-hydroxy-, ethyl ester

> <Source>
DSSTox2DMolFile

> <Tox>
2.100

> <CAS>
118-61-6

$$$$

  CDK

 10 10  0  0  0  0  0  0  0  0999 V2000
    2.6582   -0.0000    0.0000 N   0  0  0  0  0  0  0  0  0  0  0  0
    1.9971   -1.1499    0.0000 C   0  0  0  0  0  0  0  0  0  0  0  0
    2.6582   -2.3044    0.0000 C   0  0  0  0  0  0  0  0  0  0  0  0
    0.6657   -1.1499    0.0000 C   0  0  0  0  0  0  0  0  0  0  0  0
    1.9971   -3.4542    0.0000 C   0  0  0  0  0  0  0  0  0  0  0  0
    3.9896   -2.3044    0.0000 C   0  0  0  0  0  0  0  0  0  0  0  0
    0.0000   -2.3044    0.0000 C   0  0  0  0  0  0  0  0  0  0  0  0
    0.6657   -3.4542    0.0000 C   0  0  0  0  0  0  0  0  0  0  0  0
    4.6553   -1.1499    0.0000 O   0  0  0  0  0  0  0  0  0  0  0  0
    4.6553   -3.4542    0.0000 O   0  0  0  0  0  0  0  0  0  0  0  0
  1  2  1  0  0  0  0 
  2  3  2  0  0  0  0 
  2  4  1  0  0  0  0 
  3  5  1  0  0  0  0 
  3  6  1  0  0  0  0 
  7  4  2  0  0  0  0 
  5  8  2  0  0  0  0 
  6  9  2  0  0  0  0 
  6 10  1  0  0  0  0 
  8  7  1  0  0  0  0 
M  END
> <Name>
Benzoic acid, 2-amino-

> <Source>
DSSTox2DMolFile

> <Tox>
1.404

> <CAS>
118-92-3

$$$$

  CDK

 11 11  0  0  0  0  0  0  0  0999 V2000
    0.0000   -3.4582    0.0000 O   0  0  0  0  0  0  0  0  0  0  0  0
    0.6656   -2.3039    0.0000 N   0  0  0  0  0  0  0  0  0  0  0  0
    0.0000   -1.1543    0.0000 O   0  0  0  0  0  0  0  0  0  0  0  0
    1.9968   -2.3039    0.0000 C   0  0  0  0  0  0  0  0  0  0  0  0
    2.6577   -1.1543    0.0000 C   0  0  0  0  0  0  0  0  0  0  0  0
    2.6577   -3.4582    0.0000 C   0  0  0  0  0  0  0  0  0  0  0  0
    3.9889   -1.1543    0.0000 C   0  0  0  0  0  0  0  0  0  0  0  0
    1.9968   -0.0000    0.0000 C   0  0  0  0  0  0  0  0  0  0  0  0
    3.9889   -3.4582    0.0000 C   0  0  0  0  0  0  0  0  0  0  0  0
    4.6544   -2.3039    0.0000 C   0  0  0  0  0  0  0  0  0  0  0  0
    4.6544   -4.6079    0.0000 N   0  0  0  0  0  0  0  0  0  0  0  0
  1  2  1  0  0  0  0 
  2  3  2  0  0  0  0 
  2  4  1  0  0  0  0 
  4  5  2  0  0  0  0 
  4  6  1  0  0  0  0 
  5  7  1  0  0  0  0 
  5  8  1  0  0  0  0 
  9  6  2  0  0  0  0 
  7 10  2  0  0  0  0 
 10  9  1  0  0  0  0 
  9 11  1  0  0  0  0 
M  CHG  1   1  -1
M  CHG  1   2   1
M  END
> <Name>
Benzenamine, 4-methyl-3-nitro-

> <Source>
DSSTox2DMolFile

> <Tox>
1.346

> <CAS>
119-32-4

$$$$

  CDK

 11 11  0  0  0  0  0  0  0  0999 V2000
    1.9968   -4.6079    0.0000 O   0  0  0  0  0  0  0  0  0  0  0  0
    2.6577   -3.4583    0.0000 C   0  0  0  0  0  0  0  0  0  0  0  0
    1.9968   -2.3039    0.0000 C   0  0  0  0  0  0  0  0  0  0  0  0
    3.9889   -3.4583    0.0000 C   0  0  0  0  0  0  0  0  0  0  0  0
    2.6577   -1.1543    0.0000 C   0  0  0  0  0  0  0  0  0  0  0  0
    0.6656   -2.3039    0.0000 N   0  0  0  0  0  0  0  0  0  0  0  0
    4.6544   -2.3039    0.0000 C   0  0  0  0  0  0  0  0  0  0  0  0
    3.9889   -1.1543    0.0000 C   0  0  0  0  0  0  0  0  0  0  0  0
    0.0000   -3.4583    0.0000 O   0  0  0  0  0  0  0  0  0  0  0  0
    0.0000   -1.1543    0.0000 O   0  0  0  0  0  0  0  0  0  0  0  0
    4.6544   -0.0000    0.0000 N   0  0  0  0  0  0  0  0  0  0  0  0
  1  2  1  0  0  0  0 
  2  3  2  0  0  0  0 
  2  4  1  0  0  0  0 
  3  5  1  0  0  0  0 
  3  6  1  0  0  0  0 
  7  4  2  0  0  0  0 
  5  8  2  0  0  0  0 
  6  9  2  0  0  0  0 
  6 10  1  0  0  0  0 
  8  7  1  0  0  0  0 
  8 11  1  0  0  0  0 
M  CHG  1   6   1
M  CHG  1  10  -1
M  END
> <Name>
Phenol, 4-amino-2-nitro-

> <Source>
DSSTox2DMolFile

> <Tox>
2.021

> <CAS>
119-34-6

$$$$

  CDK

 12 12  0  0  0  0  0  0  0  0999 V2000
    1.4976    0.8486    0.0000 C   0  0  0  0  0  0  0  0  0  0  0  0
    1.9968    1.7472    0.0000 C   0  0  0  0  0  0  0  0  0  0  0  0
    0.4992    0.8486    0.0000 N   0  0  0  0  0  0  0  0  0  0  0  0
    1.9968    0.0000    0.0000 C   0  0  0  0  0  0  0  0  0  0  0  0
    1.4976    2.5958    0.0000 O   0  0  0  0  0  0  0  0  0  0  0  0
    2.9951    1.7472    0.0000 C   0  0  0  0  0  0  0  0  0  0  0  0
    0.0000    0.0000    0.0000 O   0  0  0  0  0  0  0  0  0  0  0  0
    3.4943    2.5958    0.0000 C   0  0  0  0  0  0  0  0  0  0  0  0
    3.4943    0.8486    0.0000 C   0  0  0  0  0  0  0  0  0  0  0  0
    4.4927    2.5958    0.0000 C   0  0  0  0  0  0  0  0  0  0  0  0
    4.4927    0.8486    0.0000 C   0  0  0  0  0  0  0  0  0  0  0  0
    4.9919    1.7472    0.0000 C   0  0  0  0  0  0  0  0  0  0  0  0
  1  2  1  0  0  0  0 
  1  3  2  0  0  0  0 
  1  4  1  0  0  0  0 
  2  5  2  0  0  0  0 
  2  6  1  0  0  0  0 
  3  7  1  0  0  0  0 
  8  6  2  0  0  0  0 
  6  9  1  0  0  0  0 
 10  8  1  0  0  0  0 
  9 11  2  0  0  0  0 
 12 10  2  0  0  0  0 
 11 12  1  0  0  0  0 
M  END
> <Name>
1,2-Propanedione, 1-phenyl-, 2-oxime

> <Source>
NIST2DMolFile

> <Tox>
1.585

> <CAS>
119-51-7

$$$$

  CDK

 10 11  0  0  0  0  0  0  0  0999 V2000
    2.3039   -0.6635    0.0000 C   0  0  0  0  0  0  0  0  0  0  0  0
    3.4558   -0.0000    0.0000 C   0  0  0  0  0  0  0  0  0  0  0  0
    2.3039   -1.9952    0.0000 C   0  0  0  0  0  0  0  0  0  0  0  0
    1.1519   -0.0000    0.0000 C   0  0  0  0  0  0  0  0  0  0  0  0
    4.6078   -0.6635    0.0000 C   0  0  0  0  0  0  0  0  0  0  0  0
    3.4558   -2.6587    0.0000 C   0  0  0  0  0  0  0  0  0  0  0  0
    1.1519   -2.6587    0.0000 C   0  0  0  0  0  0  0  0  0  0  0  0
    0.0000   -0.6635    0.0000 C   0  0  0  0  0  0  0  0  0  0  0  0
    4.6078   -1.9952    0.0000 C   0  0  0  0  0  0  0  0  0  0  0  0
    0.0000   -1.9952    0.0000 C   0  0  0  0  0  0  0  0  0  0  0  0
  1  2  1  0  0  0  0 
  1  3  2  0  0  0  0 
  1  4  1  0  0  0  0 
  2  5  1  0  0  0  0 
  6  3  1  0  0  0  0 
  3  7  1  0  0  0  0 
  8  4  2  0  0  0  0 
  5  9  1  0  0  0  0 
  9  6  1  0  0  0  0 
  7 10  2  0  0  0  0 
 10  8  1  0  0  0  0 
M  END
> <Name>
Naphthalene, 1,2,3,4-tetrahydro-

> <Source>
DSSTox2DMolFile

> <Tox>
1.924

> <CAS>
119-64-2

$$$$

  CDK

 10 11  0  0  0  0  0  0  0  0999 V2000
   -1.2496    1.3663    0.0000 C   0  0  0  0  0  0  0  0  0  0  0  0
   -2.3951    0.7017    0.0000 N   0  0  0  0  0  0  0  0  0  0  0  0
    0.0109    0.6940    0.0000 C   0  0  0  0  0  0  0  0  0  0  0  0
   -2.3928   -0.6819    0.0000 C   0  0  0  0  0  0  0  0  0  0  0  0
    0.0184   -0.7152    0.0000 C   0  0  0  0  0  0  0  0  0  0  0  0
    1.2384    1.4025    0.0000 C   0  0  0  0  0  0  0  0  0  0  0  0
   -1.2279   -1.4027    0.0000 C   0  0  0  0  0  0  0  0  0  0  0  0
    1.2594   -1.4032    0.0000 C   0  0  0  0  0  0  0  0  0  0  0  0
    2.4241    0.7159    0.0000 C   0  0  0  0  0  0  0  0  0  0  0  0
    2.4339   -0.6978    0.0000 C   0  0  0  0  0  0  0  0  0  0  0  0
  1  2  2  0  0  0  0 
  1  3  1  0  0  0  0 
  2  4  1  0  0  0  0 
  5  3  1  0  0  0  0 
  6  3  2  0  0  0  0 
  4  7  2  0  0  0  0 
  7  5  1  0  0  0  0 
  5  8  2  0  0  0  0 
  9  6  1  0  0  0  0 
  8 10  1  0  0  0  0 
 10  9  2  0  0  0  0 
M  END
> <Name>
Isoquinoline

> <Source>
DougDB3DMolFile

> <Tox>
2.555

> <CAS>
119-65-3

$$$$

  CDK

 11 12  0  0  0  0  0  0  0  0999 V2000
    0.0000   -2.6606    0.0000 O   0  0  0  0  0  0  0  0  0  0  0  0
    1.1518   -1.9983    0.0000 C   0  0  0  0  0  0  0  0  0  0  0  0
    2.3036   -2.6606    0.0000 O   0  0  0  0  0  0  0  0  0  0  0  0
    1.1518   -0.6680    0.0000 C   0  0  0  0  0  0  0  0  0  0  0  0
    3.4554   -1.9983    0.0000 C   0  0  0  0  0  0  0  0  0  0  0  0
    2.3036   -0.0000    0.0000 C   0  0  0  0  0  0  0  0  0  0  0  0
    3.4554   -0.6680    0.0000 C   0  0  0  0  0  0  0  0  0  0  0  0
    4.6071   -2.6606    0.0000 C   0  0  0  0  0  0  0  0  0  0  0  0
    4.6071   -0.0000    0.0000 C   0  0  0  0  0  0  0  0  0  0  0  0
    5.7589   -1.9983    0.0000 C   0  0  0  0  0  0  0  0  0  0  0  0
    5.7589   -0.6680    0.0000 C   0  0  0  0  0  0  0  0  0  0  0  0
  1  2  2  0  0  0  0 
  2  3  1  0  0  0  0 
  2  4  1  0  0  0  0 
  3  5  1  0  0  0  0 
  6  4  1  0  0  0  0 
  5  7  2  0  0  0  0 
  5  8  1  0  0  0  0 
  7  6  1  0  0  0  0 
  7  9  1  0  0  0  0 
 10  8  2  0  0  0  0 
  9 11  2  0  0  0  0 
 11 10  1  0  0  0  0 
M  END
> <Name>
2H-1-Benzopyran-2-one, 3,4-dihydro-

> <Source>
DSSTox2DMolFile

> <Tox>
2.006

> <CAS>
119-84-6

$$$$

  CDK

 13 13  0  0  0  0  0  0  0  0999 V2000
    0.1084    0.8735    0.3631 C   0  0  0  0  0  0  0  0  0  0  0  0
   -1.2610    0.2869    0.1125 C   0  0  0  0  0  0  0  0  0  0  0  0
    0.2927    1.2247    1.8363 C   0  0  0  0  0  0  0  0  0  0  0  0
    1.0498   -0.1438   -0.0293 O   0  0  0  0  0  0  0  0  0  0  0  0
   -2.1644    0.9838   -0.6916 C   0  0  0  0  0  0  0  0  0  0  0  0
   -1.6412   -0.9299    0.6800 C   0  0  0  0  0  0  0  0  0  0  0  0
    2.2851    0.2133   -0.4787 C   0  0  0  0  0  0  0  0  0  0  0  0
   -3.4359    0.4700   -0.9204 C   0  0  0  0  0  0  0  0  0  0  0  0
   -2.9121   -1.4429    0.4442 C   0  0  0  0  0  0  0  0  0  0  0  0
    3.1351   -0.9842   -0.8516 C   0  0  0  0  0  0  0  0  0  0  0  0
    2.5994    1.3854   -0.5463 O   0  0  0  0  0  0  0  0  0  0  0  0
   -3.8108   -0.7437   -0.3540 C   0  0  0  0  0  0  0  0  0  0  0  0
    4.0822   -1.3358    0.2747 C   0  0  0  0  0  0  0  0  0  0  0  0
  1  2  1  0  0  0  0 
  1  3  1  0  0  0  0 
  1  4  1  0  0  0  0 
  2  5  1  0  0  0  0 
  2  6  2  0  0  0  0 
  7  4  1  0  0  0  0 
  5  8  2  0  0  0  0 
  9  6  1  0  0  0  0 
  7 10  1  0  0  0  0 
  7 11  2  0  0  0  0 
  8 12  1  0  0  0  0 
 12  9  2  0  0  0  0 
 10 13  1  0  0  0  0 
M  END
> <Name>
Benzenemethanol, alpha-methyl-, propanoate

> <Source>
DougDB3DMolFile

> <Tox>
1.535

> <CAS>
120-45-6

$$$$

  CDK

 13 13  0  0  0  0  0  0  0  0999 V2000
    5.7563   -0.0000    0.0000 C   0  0  0  0  0  0  0  0  0  0  0  0
    4.6092   -0.6634    0.0000 C   0  0  0  0  0  0  0  0  0  0  0  0
    4.6092   -1.9902    0.0000 C   0  0  0  0  0  0  0  0  0  0  0  0
    3.4552   -0.0000    0.0000 C   0  0  0  0  0  0  0  0  0  0  0  0
    5.7563   -2.6605    0.0000 N   0  0  0  0  0  0  0  0  0  0  0  0
    3.4552   -2.6605    0.0000 C   0  0  0  0  0  0  0  0  0  0  0  0
    2.3011   -0.6634    0.0000 C   0  0  0  0  0  0  0  0  0  0  0  0
    6.9103   -1.9902    0.0000 O   0  0  0  0  0  0  0  0  0  0  0  0
    5.7563   -3.9873    0.0000 O   0  0  0  0  0  0  0  0  0  0  0  0
    2.3011   -1.9902    0.0000 C   0  0  0  0  0  0  0  0  0  0  0  0
    1.1540   -2.6605    0.0000 N   0  0  0  0  0  0  0  0  0  0  0  0
    0.0000   -1.9902    0.0000 O   0  0  0  0  0  0  0  0  0  0  0  0
    1.1540   -3.9873    0.0000 O   0  0  0  0  0  0  0  0  0  0  0  0
  1  2  1  0  0  0  0 
  2  3  2  0  0  0  0 
  2  4  1  0  0  0  0 
  3  5  1  0  0  0  0 
  3  6  1  0  0  0  0 
  7  4  2  0  0  0  0 
  5  8  1  0  0  0  0 
  5  9  2  0  0  0  0 
  6 10  2  0  0  0  0 
 10  7  1  0  0  0  0 
 10 11  1  0  0  0  0 
 11 12  1  0  0  0  0 
 11 13  2  0  0  0  0 
M  CHG  1   5   1
M  CHG  1   8  -1
M  CHG  1  11   1
M  CHG  1  12  -1
M  END
> <Name>
Benzene, 1-methyl-2,4-dinitro-

> <Source>
DSSTox2DMolFile

> <Tox>
2.832

> <CAS>
121-14-2

$$$$

  CDK

 18 17  0  0  0  0  0  0  0  0999 V2000
   -3.0681    0.2804    0.0203 C   0  0  0  0  0  0  0  0  0  0  0  0
   -1.7085   -0.2619    0.0413 C   0  0  0  0  0  0  0  0  0  0  0  0
   -3.4402    1.4429   -0.0071 O   0  0  0  0  0  0  0  0  0  0  0  0
   -4.0202   -0.7071    0.0293 O   0  0  0  0  0  0  0  0  0  0  0  0
   -0.5790    0.4908    0.0574 C   0  0  0  0  0  0  0  0  0  0  0  0
   -5.3801   -0.3333    0.0134 C   0  0  0  0  0  0  0  0  0  0  0  0
   -0.5728    1.9958    0.0561 C   0  0  0  0  0  0  0  0  0  0  0  0
    0.6559   -0.0408    0.0512 O   0  0  0  0  0  0  0  0  0  0  0  0
    0.8039    2.6132    0.1811 C   0  0  0  0  0  0  0  0  0  0  0  0
    1.1531   -1.6757    0.2986 P   0  0  0  0  0  0  0  0  0  0  0  0
    1.4181    2.8542    1.2012 O   0  0  0  0  0  0  0  0  0  0  0  0
    1.3567    2.9457   -1.0243 O   0  0  0  0  0  0  0  0  0  0  0  0
    0.7719   -2.2604    1.5572 O   0  0  0  0  0  0  0  0  0  0  0  0
    2.7908   -1.4905   -0.0295 O   0  0  0  0  0  0  0  0  0  0  0  0
    0.6057   -2.3934   -1.1210 O   0  0  0  0  0  0  0  0  0  0  0  0
    2.6755    3.4477   -1.0469 C   0  0  0  0  0  0  0  0  0  0  0  0
    3.5518   -0.6298    0.7595 C   0  0  0  0  0  0  0  0  0  0  0  0
    0.9325   -3.7289   -1.3426 C   0  0  0  0  0  0  0  0  0  0  0  0
  1  2  1  0  0  0  0 
  1  3  2  0  0  0  0 
  1  4  1  0  0  0  0 
  2  5  2  0  0  0  0 
  4  6  1  0  0  0  0 
  5  7  1  0  0  0  0 
  5  8  1  0  0  0  0 
  7  9  1  0  0  0  0 
  8 10  1  0  0  0  0 
  9 11  2  0  0  0  0 
  9 12  1  0  0  0  0 
 10 13  2  0  0  0  0 
 10 14  1  0  0  0  0 
 10 15  1  0  0  0  0 
 12 16  1  0  0  0  0 
 14 17  1  0  0  0  0 
 15 18  1  0  0  0  0 
M  END
> <Name>
2-Pentenedioic acid, 3-((dimethoxyphosphinyl)oxy)-, dimethyl ester

> <Source>
DougDB3DMolFile

> <Tox>
3.959

> <CAS>
122-10-1

$$$$

  CDK

 15 15  0  0  0  0  0  0  0  0999 V2000
    2.4253    1.3992    0.0000 C   0  0  0  0  0  0  0  0  0  0  0  0
    1.2127    2.0988    0.0000 N   0  0  0  0  0  0  0  0  0  0  0  0
    0.0000    1.3992    0.0000 C   0  0  0  0  0  0  0  0  0  0  0  0
    1.2127    3.4981    0.0000 C   0  0  0  0  0  0  0  0  0  0  0  0
    0.0000    4.1977    0.0000 O   0  0  0  0  0  0  0  0  0  0  0  0
    2.4253    4.1977    0.0000 O   0  0  0  0  0  0  0  0  0  0  0  0
    3.6380    3.4981    0.0000 C   0  0  0  0  0  0  0  0  0  0  0  0
    3.6380    2.0988    0.0000 C   0  0  0  0  0  0  0  0  0  0  0  0
    4.8506    4.1977    0.0000 C   0  0  0  0  0  0  0  0  0  0  0  0
    4.8506    1.3992    0.0000 C   0  0  0  0  0  0  0  0  0  0  0  0
    6.0633    3.4981    0.0000 C   0  0  0  0  0  0  0  0  0  0  0  0
    4.8506    0.0000    0.0000 O   0  0  0  0  0  0  0  0  0  0  0  0
    6.0633    2.0988    0.0000 C   0  0  0  0  0  0  0  0  0  0  0  0
    6.5297    4.8506    0.0000 C   0  0  0  0  0  0  0  0  0  0  0  0
    7.4625    3.2649    0.0000 C   0  0  0  0  0  0  0  0  0  0  0  0
  1  2  1  0  0  0  0 
  2  3  1  0  0  0  0 
  2  4  1  0  0  0  0 
  4  5  2  0  0  0  0 
  4  6  1  0  0  0  0 
  6  7  1  0  0  0  0 
  7  8  2  0  0  0  0 
  7  9  1  0  0  0  0 
  8 10  1  0  0  0  0 
 11  9  1  0  0  0  0 
 10 12  2  0  0  0  0 
 10 13  1  0  0  0  0 
 13 11  1  0  0  0  0 
 11 14  1  0  0  0  0 
 11 15  1  0  0  0  0 
M  END
> <Name>
Carbamic acid, dimethyl-, ester with 3-hydroxy-5,5-dimethyl-2-cyclohexen-1-one

> <Source>
IndexNet2DMolFile

> <Tox>
3.246

> <CAS>
122-15-6

$$$$

  CDK

 15 14  0  0  0  0  0  0  0  0999 V2000
    0.0000    0.0000    0.0000 C   0  0  0  0  0  0  0  0  0  0  0  0
    0.8988    0.4994    0.0000 C   0  0  0  0  0  0  0  0  0  0  0  0
    1.7477    0.0000    0.0000 O   0  0  0  0  0  0  0  0  0  0  0  0
    2.5967    0.4994    0.0000 C   0  0  0  0  0  0  0  0  0  0  0  0
    3.4456    0.0000    0.0000 C   0  0  0  0  0  0  0  0  0  0  0  0
    2.5967    1.4981    0.0000 O   0  0  0  0  0  0  0  0  0  0  0  0
    4.2945    0.4994    0.0000 C   0  0  0  0  0  0  0  0  0  0  0  0
    1.7477    1.9974    0.0000 C   0  0  0  0  0  0  0  0  0  0  0  0
    4.2945    1.4981    0.0000 O   0  0  0  0  0  0  0  0  0  0  0  0
    5.1933    0.0000    0.0000 O   0  0  0  0  0  0  0  0  0  0  0  0
    1.7477    2.9961    0.0000 C   0  0  0  0  0  0  0  0  0  0  0  0
    5.1933    1.9974    0.0000 C   0  0  0  0  0  0  0  0  0  0  0  0
    6.0422    0.5493    0.0000 C   0  0  0  0  0  0  0  0  0  0  0  0
    5.1933    2.9961    0.0000 C   0  0  0  0  0  0  0  0  0  0  0  0
    6.8911    0.0499    0.0000 C   0  0  0  0  0  0  0  0  0  0  0  0
  1  2  1  0  0  0  0 
  2  3  1  0  0  0  0 
  3  4  1  0  0  0  0 
  4  5  1  0  0  0  0 
  4  6  1  0  0  0  0 
  7  5  1  0  0  0  0 
  6  8  1  0  0  0  0 
  7  9  1  0  0  0  0 
  7 10  1  0  0  0  0 
 11  8  1  0  0  0  0 
  9 12  1  0  0  0  0 
 10 13  1  0  0  0  0 
 14 12  1  0  0  0  0 
 15 13  1  0  0  0  0 
M  END
> <Name>
Propane, 1,1,3,3-tetraethoxy- (9CI)

> <Source>
NIST2DMolFile

> <Tox>
2.136

> <CAS>
122-31-6

$$$$

  CDK

 11 11  0  0  0  0  0  0  0  0999 V2000
    2.6605   -2.3079    0.0000 O   0  0  0  0  0  0  0  0  0  0  0  0
    1.9953   -1.1573    0.0000 C   0  0  0  0  0  0  0  0  0  0  0  0
    3.9907   -2.3079    0.0000 C   0  0  0  0  0  0  0  0  0  0  0  0
    0.6651   -1.1573    0.0000 C   0  0  0  0  0  0  0  0  0  0  0  0
    4.6558   -1.1573    0.0000 C   0  0  0  0  0  0  0  0  0  0  0  0
    4.6558   -3.4586    0.0000 C   0  0  0  0  0  0  0  0  0  0  0  0
    0.0000   -2.3079    0.0000 O   0  0  0  0  0  0  0  0  0  0  0  0
    0.0000   -0.0000    0.0000 O   0  0  0  0  0  0  0  0  0  0  0  0
    5.9860   -1.1573    0.0000 C   0  0  0  0  0  0  0  0  0  0  0  0
    5.9860   -3.4586    0.0000 C   0  0  0  0  0  0  0  0  0  0  0  0
    6.6511   -2.3079    0.0000 C   0  0  0  0  0  0  0  0  0  0  0  0
  1  2  1  0  0  0  0 
  1  3  1  0  0  0  0 
  2  4  1  0  0  0  0 
  3  5  2  0  0  0  0 
  3  6  1  0  0  0  0 
  4  7  2  0  0  0  0 
  4  8  1  0  0  0  0 
  5  9  1  0  0  0  0 
 10  6  2  0  0  0  0 
  9 11  2  0  0  0  0 
 11 10  1  0  0  0  0 
M  END
> <Name>
Acetic acid, phenoxy-

> <Source>
DSSTox2DMolFile

> <Tox>
2.006

> <CAS>
122-59-8

$$$$

  CDK

 12 12  0  0  0  0  0  0  0  0999 V2000
    2.3725    0.3930   -0.0148 C   0  0  0  0  0  0  0  0  0  0  0  0
    3.2294   -0.3720   -1.0002 C   0  0  0  0  0  0  0  0  0  0  0  0
    2.7413    1.1801    0.8351 O   0  0  0  0  0  0  0  0  0  0  0  0
    1.0423    0.1279   -0.1490 O   0  0  0  0  0  0  0  0  0  0  0  0
    3.9712   -1.4930   -0.3058 C   0  0  0  0  0  0  0  0  0  0  0  0
    0.1247    0.7857    0.7306 C   0  0  0  0  0  0  0  0  0  0  0  0
   -1.2448    0.3174    0.3338 C   0  0  0  0  0  0  0  0  0  0  0  0
   -1.7936   -0.8217    0.9235 C   0  0  0  0  0  0  0  0  0  0  0  0
   -1.9785    1.0267   -0.6175 C   0  0  0  0  0  0  0  0  0  0  0  0
   -3.0684   -1.2454    0.5645 C   0  0  0  0  0  0  0  0  0  0  0  0
   -3.2529    0.5993   -0.9735 C   0  0  0  0  0  0  0  0  0  0  0  0
   -3.7985   -0.5359   -0.3834 C   0  0  0  0  0  0  0  0  0  0  0  0
  1  2  1  0  0  0  0 
  1  3  2  0  0  0  0 
  1  4  1  0  0  0  0 
  2  5  1  0  0  0  0 
  4  6  1  0  0  0  0 
  6  7  1  0  0  0  0 
  7  8  1  0  0  0  0 
  7  9  2  0  0  0  0 
  8 10  2  0  0  0  0 
 11  9  1  0  0  0  0 
 10 12  1  0  0  0  0 
 12 11  2  0  0  0  0 
M  END
> <Name>
Propionic acid, benzyl ester (6CI,7CI,8CI)

> <Source>
DougDB3DMolFile

> <Tox>
1.697

> <CAS>
122-63-4

$$$$

  CDK

 13 13  0  0  0  0  0  0  0  0999 V2000
    2.3059   -2.0107    0.0000 C   0  0  0  0  0  0  0  0  0  0  0  0
    2.3059   -0.6733    0.0000 O   0  0  0  0  0  0  0  0  0  0  0  0
    3.4496   -2.6656    0.0000 O   0  0  0  0  0  0  0  0  0  0  0  0
    1.1529   -2.6656    0.0000 C   0  0  0  0  0  0  0  0  0  0  0  0
    4.6025   -2.0107    0.0000 C   0  0  0  0  0  0  0  0  0  0  0  0
    0.0000   -2.0107    0.0000 C   0  0  0  0  0  0  0  0  0  0  0  0
    5.7554   -2.6656    0.0000 C   0  0  0  0  0  0  0  0  0  0  0  0
    6.9176   -2.0107    0.0000 C   0  0  0  0  0  0  0  0  0  0  0  0
    6.9176   -0.6733    0.0000 C   0  0  0  0  0  0  0  0  0  0  0  0
    8.0705   -2.6656    0.0000 C   0  0  0  0  0  0  0  0  0  0  0  0
    8.0705   -0.0000    0.0000 C   0  0  0  0  0  0  0  0  0  0  0  0
    9.2235   -2.0107    0.0000 C   0  0  0  0  0  0  0  0  0  0  0  0
    9.2235   -0.6733    0.0000 C   0  0  0  0  0  0  0  0  0  0  0  0
  1  2  2  0  0  0  0 
  1  3  1  0  0  0  0 
  1  4  1  0  0  0  0 
  3  5  1  0  0  0  0 
  4  6  1  0  0  0  0 
  5  7  1  0  0  0  0 
  7  8  1  0  0  0  0 
  8  9  2  0  0  0  0 
  8 10  1  0  0  0  0 
  9 11  1  0  0  0  0 
 10 12  2  0  0  0  0 
 11 13  2  0  0  0  0 
 12 13  1  0  0  0  0 
M  END
> <Name>
Propanoic acid, 2-phenylethyl ester

> <Source>
DSSTox2DMolFile

> <Tox>
1.649

> <CAS>
122-70-3

$$$$

  CDK

 13 13  0  0  0  0  0  0  0  0999 V2000
   -2.2169   -1.0034   -0.0921 C   0  0  0  0  0  0  0  0  0  0  0  0
   -1.8616   -2.4078    0.3058 C   0  0  0  0  0  0  0  0  0  0  0  0
   -2.8394   -0.6474   -1.0736 O   0  0  0  0  0  0  0  0  0  0  0  0
   -1.7696   -0.0747    0.8068 O   0  0  0  0  0  0  0  0  0  0  0  0
   -1.9753    1.3080    0.5591 C   0  0  0  0  0  0  0  0  0  0  0  0
   -0.9870    1.9174   -0.4325 C   0  0  0  0  0  0  0  0  0  0  0  0
    0.4096    2.1411    0.1350 C   0  0  0  0  0  0  0  0  0  0  0  0
    1.2834    0.9311    0.0481 C   0  0  0  0  0  0  0  0  0  0  0  0
    1.6945    0.2689    1.2053 C   0  0  0  0  0  0  0  0  0  0  0  0
    1.7136    0.4670   -1.1973 C   0  0  0  0  0  0  0  0  0  0  0  0
    2.5230   -0.8449    1.1169 C   0  0  0  0  0  0  0  0  0  0  0  0
    2.5404   -0.6465   -1.2819 C   0  0  0  0  0  0  0  0  0  0  0  0
    2.9464   -1.3042   -0.1250 C   0  0  0  0  0  0  0  0  0  0  0  0
  1  2  1  0  0  0  0 
  1  3  2  0  0  0  0 
  1  4  1  0  0  0  0 
  4  5  1  0  0  0  0 
  5  6  1  0  0  0  0 
  6  7  1  0  0  0  0 
  7  8  1  0  0  0  0 
  8  9  1  0  0  0  0 
  8 10  2  0  0  0  0 
  9 11  2  0  0  0  0 
 12 10  1  0  0  0  0 
 11 13  1  0  0  0  0 
 13 12  2  0  0  0  0 
M  END
> <Name>
1-Propanol, 3-phenyl-, acetate

> <Source>
DougDB3DMolFile

> <Tox>
1.579

> <CAS>
122-72-5

$$$$

  CDK

 10 10  0  0  0  0  0  0  0  0999 V2000
    2.0883   -0.0031    0.1937 C   0  0  0  0  0  0  0  0  0  0  0  0
    3.4639    0.0098   -0.4096 C   0  0  0  0  0  0  0  0  0  0  0  0
    1.7873   -0.0068    1.3680 O   0  0  0  0  0  0  0  0  0  0  0  0
    1.1033   -0.0087   -0.7653 O   0  0  0  0  0  0  0  0  0  0  0  0
   -0.2311   -0.0037   -0.3538 C   0  0  0  0  0  0  0  0  0  0  0  0
   -0.8955    1.2182   -0.2142 C   0  0  0  0  0  0  0  0  0  0  0  0
   -0.9050   -1.2205   -0.2158 C   0  0  0  0  0  0  0  0  0  0  0  0
   -2.2577    1.2109    0.0644 C   0  0  0  0  0  0  0  0  0  0  0  0
   -2.2672   -1.2028    0.0626 C   0  0  0  0  0  0  0  0  0  0  0  0
   -2.9410    0.0066    0.2022 C   0  0  0  0  0  0  0  0  0  0  0  0
  1  2  1  0  0  0  0 
  1  3  2  0  0  0  0 
  1  4  1  0  0  0  0 
  4  5  1  0  0  0  0 
  5  6  1  0  0  0  0 
  5  7  2  0  0  0  0 
  6  8  2  0  0  0  0 
  9  7  1  0  0  0  0 
  8 10  1  0  0  0  0 
 10  9  2  0  0  0  0 
M  END
> <Name>
Acetic acid, phenyl ester

> <Source>
DougDB3DMolFile

> <Tox>
1.891

> <CAS>
122-79-2

$$$$

  CDK

 12 12  0  0  0  0  0  0  0  0999 V2000
   -2.1067    0.0365   -1.0308 C   0  0  0  0  0  0  0  0  0  0  0  0
   -2.9717    0.1838    0.2121 C   0  0  0  0  0  0  0  0  0  0  0  0
   -0.6631   -0.0528   -0.6586 C   0  0  0  0  0  0  0  0  0  0  0  0
   -3.2823   -1.0893    0.9490 C   0  0  0  0  0  0  0  0  0  0  0  0
   -3.3918    1.2659    0.5734 O   0  0  0  0  0  0  0  0  0  0  0  0
   -0.0547   -1.2986   -0.4806 C   0  0  0  0  0  0  0  0  0  0  0  0
    0.0896    1.1098   -0.4985 C   0  0  0  0  0  0  0  0  0  0  0  0
    1.2873   -1.3871   -0.1452 C   0  0  0  0  0  0  0  0  0  0  0  0
    1.4365    1.0418   -0.1611 C   0  0  0  0  0  0  0  0  0  0  0  0
    2.0354   -0.2094    0.0155 C   0  0  0  0  0  0  0  0  0  0  0  0
    3.3575   -0.4255    0.3478 O   0  0  0  0  0  0  0  0  0  0  0  0
    4.1745    0.7049    0.5264 C   0  0  0  0  0  0  0  0  0  0  0  0
  1  2  1  0  0  0  0 
  1  3  1  0  0  0  0 
  2  4  1  0  0  0  0 
  2  5  2  0  0  0  0 
  3  6  1  0  0  0  0 
  3  7  2  0  0  0  0 
  6  8  2  0  0  0  0 
  9  7  1  0  0  0  0 
  8 10  1  0  0  0  0 
 10  9  2  0  0  0  0 
 10 11  1  0  0  0  0 
 11 12  1  0  0  0  0 
M  END
> <Name>
2-Propanone, 1-(4-methoxyphenyl)-

> <Source>
DougDB3DMolFile

> <Tox>
1.693

> <CAS>
122-84-9

$$$$

  CDK

  8  7  0  0  0  0  0  0  0  0999 V2000
   -0.0889    0.3151   -0.0014 C   0  0  0  0  0  0  0  0  0  0  0  0
    1.1566   -0.5404   -0.0031 C   0  0  0  0  0  0  0  0  0  0  0  0
   -0.1854    1.5239   -0.0014 O   0  0  0  0  0  0  0  0  0  0  0  0
   -1.2246   -0.4618   -0.0001 O   0  0  0  0  0  0  0  0  0  0  0  0
    2.4328    0.2854    0.0039 C   0  0  0  0  0  0  0  0  0  0  0  0
   -2.4732    0.1394    0.0009 C   0  0  0  0  0  0  0  0  0  0  0  0
    3.6533   -0.6075    0.0001 C   0  0  0  0  0  0  0  0  0  0  0  0
   -3.5230   -0.6824    0.0012 C   0  0  0  0  0  0  0  0  0  0  0  0
  1  2  1  0  0  0  0 
  1  3  2  0  0  0  0 
  1  4  1  0  0  0  0 
  2  5  1  0  0  0  0 
  4  6  1  0  0  0  0 
  5  7  1  0  0  0  0 
  6  8  2  0  0  0  0 
M  END
> <Name>
Butanoic acid, ethenyl ester (9CI)

> <Source>
DougDB3DMolFile

> <Tox>
1.126

> <CAS>
123-20-6

$$$$

  CDK

  4  3  0  0  0  0  0  0  0  0999 V2000
    0.0000   -0.0000    0.0000 C   0  0  0  0  0  0  0  0  0  0  0  0
    1.1513   -0.6638    0.0000 C   0  0  0  0  0  0  0  0  0  0  0  0
    2.3061   -0.0000    0.0000 C   0  0  0  0  0  0  0  0  0  0  0  0
    3.4575   -0.6638    0.0000 O   0  0  0  0  0  0  0  0  0  0  0  0
  1  2  1  0  0  0  0 
  2  3  1  0  0  0  0 
  3  4  2  0  0  0  0 
M  END
> <Name>
Propionaldehyde

> <Source>
DSSTox2DMolFile

> <Tox>
1.615

> <CAS>
123-38-6

$$$$

  CDK

  8  7  0  0  0  0  0  0  0  0999 V2000
    2.3044   -1.9956    0.0000 C   0  0  0  0  0  0  0  0  0  0  0  0
    1.1522   -1.3319    0.0000 C   0  0  0  0  0  0  0  0  0  0  0  0
    3.4566   -1.3319    0.0000 C   0  0  0  0  0  0  0  0  0  0  0  0
    0.0000   -1.9956    0.0000 C   0  0  0  0  0  0  0  0  0  0  0  0
    1.1522   -0.0000    0.0000 O   0  0  0  0  0  0  0  0  0  0  0  0
    2.7929   -0.1797    0.0000 C   0  0  0  0  0  0  0  0  0  0  0  0
    4.6088   -0.6683    0.0000 C   0  0  0  0  0  0  0  0  0  0  0  0
    4.1203   -2.4842    0.0000 O   0  0  0  0  0  0  0  0  0  0  0  0
  1  2  1  0  0  0  0 
  1  3  1  0  0  0  0 
  2  4  1  0  0  0  0 
  2  5  2  0  0  0  0 
  3  6  1  0  0  0  0 
  3  7  1  0  0  0  0 
  3  8  1  0  0  0  0 
M  END
> <Name>
2-Pentanone, 4-hydroxy-4-methyl-

> <Source>
DSSTox2DMolFile

> <Tox>
1.664

> <CAS>
123-42-2

$$$$

  CDK

 11 10  0  0  0  0  0  0  0  0999 V2000
   -0.8011    0.8842   -0.2566 C   0  0  0  0  0  0  0  0  0  0  0  0
    0.4650    0.2879   -0.8308 C   0  0  0  0  0  0  0  0  0  0  0  0
   -0.9901    2.0308    0.0994 O   0  0  0  0  0  0  0  0  0  0  0  0
   -1.8146   -0.0231   -0.1601 O   0  0  0  0  0  0  0  0  0  0  0  0
    1.5800    0.2944    0.2042 C   0  0  0  0  0  0  0  0  0  0  0  0
   -3.0692    0.4137    0.3615 C   0  0  0  0  0  0  0  0  0  0  0  0
    2.8647   -0.2698   -0.3813 C   0  0  0  0  0  0  0  0  0  0  0  0
   -4.0414   -0.7179    0.3542 C   0  0  0  0  0  0  0  0  0  0  0  0
    3.9847   -0.2712    0.6469 C   0  0  0  0  0  0  0  0  0  0  0  0
   -3.8292   -1.9421   -0.1118 C   0  0  0  0  0  0  0  0  0  0  0  0
    5.2651   -0.8293    0.0681 C   0  0  0  0  0  0  0  0  0  0  0  0
  1  2  1  0  0  0  0 
  1  3  2  0  0  0  0 
  1  4  1  0  0  0  0 
  2  5  1  0  0  0  0 
  4  6  1  0  0  0  0 
  5  7  1  0  0  0  0 
  6  8  1  0  0  0  0 
  7  9  1  0  0  0  0 
  8 10  2  0  0  0  0 
  9 11  1  0  0  0  0 
M  END
> <Name>
Hexanoic acid, 2-propenyl ester

> <Source>
DougDB3DMolFile

> <Tox>
2.855

> <CAS>
123-68-2

$$$$

  CDK

  9  8  0  0  0  0  0  0  0  0999 V2000
    3.4545   -1.3334    0.0000 C   0  0  0  0  0  0  0  0  0  0  0  0
    4.6083   -1.9967    0.0000 C   0  0  0  0  0  0  0  0  0  0  0  0
    2.3007   -1.9967    0.0000 O   0  0  0  0  0  0  0  0  0  0  0  0
    5.7552   -1.3334    0.0000 C   0  0  0  0  0  0  0  0  0  0  0  0
    1.1538   -1.3334    0.0000 C   0  0  0  0  0  0  0  0  0  0  0  0
    5.7552   -0.0000    0.0000 C   0  0  0  0  0  0  0  0  0  0  0  0
    6.9090   -1.9967    0.0000 C   0  0  0  0  0  0  0  0  0  0  0  0
    0.0000   -1.9967    0.0000 C   0  0  0  0  0  0  0  0  0  0  0  0
    1.1538   -0.0000    0.0000 O   0  0  0  0  0  0  0  0  0  0  0  0
  1  2  1  0  0  0  0 
  1  3  1  0  0  0  0 
  2  4  1  0  0  0  0 
  3  5  1  0  0  0  0 
  4  6  1  0  0  0  0 
  4  7  1  0  0  0  0 
  5  8  1  0  0  0  0 
  5  9  2  0  0  0  0 
M  END
> <Name>
1-Butanol, 3-methyl-, acetate

> <Source>
DSSTox2DMolFile

> <Tox>
0.894

> <CAS>
123-92-2

$$$$

  CDK

  7  6  0  0  0  0  0  0  0  0999 V2000
    3.4575   -0.0000    0.0000 N   0  0  0  0  0  0  0  0  0  0  0  0
    2.3027   -0.6638    0.0000 C   0  0  0  0  0  0  0  0  0  0  0  0
    4.6122   -0.6638    0.0000 C   0  0  0  0  0  0  0  0  0  0  0  0
    1.1548   -0.0000    0.0000 C   0  0  0  0  0  0  0  0  0  0  0  0
    5.7601   -0.0000    0.0000 C   0  0  0  0  0  0  0  0  0  0  0  0
    0.0000   -0.6638    0.0000 C   0  0  0  0  0  0  0  0  0  0  0  0
    6.9149   -0.6638    0.0000 C   0  0  0  0  0  0  0  0  0  0  0  0
  1  2  1  0  0  0  0 
  1  3  1  0  0  0  0 
  2  4  1  0  0  0  0 
  3  5  1  0  0  0  0 
  4  6  2  0  0  0  0 
  5  7  2  0  0  0  0 
M  END
> <Name>
2-Propen-1-amine, N-2-propenyl-

> <Source>
DSSTox2DMolFile

> <Tox>
2.226

> <CAS>
124-02-7

$$$$

  CDK

 13 13  0  0  0  0  0  0  0  0999 V2000
    4.4683   -0.6632    0.0000 C   0  0  0  0  0  0  0  0  0  0  0  0
    4.4683   -1.9953    0.0000 C   0  0  0  0  0  0  0  0  0  0  0  0
    3.3161   -0.0000    0.0000 N   0  0  0  0  0  0  0  0  0  0  0  0
    5.6205   -2.6585    0.0000 C   0  0  0  0  0  0  0  0  0  0  0  0
    3.3161   -2.6585    0.0000 C   0  0  0  0  0  0  0  0  0  0  0  0
    2.1639   -0.6632    0.0000 C   0  0  0  0  0  0  0  0  0  0  0  0
    3.3161   -3.9906    0.0000 O   0  0  0  0  0  0  0  0  0  0  0  0
    2.1639   -1.9953    0.0000 C   0  0  0  0  0  0  0  0  0  0  0  0
    1.0117   -0.0000    0.0000 O   0  0  0  0  0  0  0  0  0  0  0  0
    1.7086   -3.2430    0.0000 C   0  0  0  0  0  0  0  0  0  0  0  0
    0.8543   -1.7648    0.0000 C   0  0  0  0  0  0  0  0  0  0  0  0
    0.3991   -3.4791    0.0000 C   0  0  0  0  0  0  0  0  0  0  0  0
    0.0000   -2.7822    0.0000 C   0  0  0  0  0  0  0  0  0  0  0  0
  1  2  1  0  0  0  0 
  1  3  1  0  0  0  0 
  2  4  1  0  0  0  0 
  2  5  1  0  0  0  0 
  6  3  1  0  0  0  0 
  5  7  2  0  0  0  0 
  5  8  1  0  0  0  0 
  8  6  1  0  0  0  0 
  6  9  2  0  0  0  0 
  8 10  1  0  0  0  0 
  8 11  1  0  0  0  0 
 10 12  1  0  0  0  0 
 11 13  1  0  0  0  0 
M  END
> <Name>
2,4-Piperidinedione, 3,3-diethyl-5-methyl-

> <Source>
DSSTox2DMolFile

> <Tox>
2.329

> <CAS>
125-64-4

$$$$

  CDK

 19 22  0  0  0  0  0  0  0  0999 V2000
    3.6067    4.0900    0.0000 C   0  0  0  0  0  0  0  0  0  0  0  0
    3.1347    3.2760    0.0000 C   0  0  0  0  0  0  0  0  0  0  0  0
    4.5527    4.0913    0.0000 C   0  0  0  0  0  0  0  0  0  0  0  0
    3.6011    2.4519    0.0000 C   0  0  0  0  0  0  0  0  0  0  0  0
    2.1904    3.2886    0.0000 C   0  0  0  0  0  0  0  0  0  0  0  0
    5.0249    3.2740    0.0000 C   0  0  0  0  0  0  0  0  0  0  0  0
    4.5523    2.4547    0.0000 C   0  0  0  0  0  0  0  0  0  0  0  0
    3.1258    1.6393    0.0000 C   0  0  0  0  0  0  0  0  0  0  0  0
    1.7106    2.4700    0.0000 C   0  0  0  0  0  0  0  0  0  0  0  0
    5.9682    3.2742    0.0000 O   0  0  0  0  0  0  0  0  0  0  0  0
    3.5917    0.8190    0.0000 C   0  0  0  0  0  0  0  0  0  0  0  0
    2.8778    0.7294    0.0000 C   0  0  0  0  0  0  0  0  0  0  0  0
    2.1770    1.6459    0.0000 C   0  0  0  0  0  0  0  0  0  0  0  0
    0.8862    1.8634    0.0000 N   0  0  0  0  0  0  0  0  0  0  0  0
    3.1143    0.0000    0.0000 C   0  0  0  0  0  0  0  0  0  0  0  0
    0.9816    0.7437    0.0000 C   0  0  0  0  0  0  0  0  0  0  0  0
    1.6944    0.8322    0.0000 C   0  0  0  0  0  0  0  0  0  0  0  0
    0.0000    2.2922    0.0000 C   0  0  0  0  0  0  0  0  0  0  0  0
    2.1657    0.0065    0.0000 C   0  0  0  0  0  0  0  0  0  0  0  0
  1  2  1  0  0  0  0 
  3  1  2  0  0  0  0 
  4  2  2  0  0  0  0 
  2  5  1  0  0  0  0 
  6  3  1  0  0  0  0 
  4  7  1  0  0  0  0 
  8  4  1  0  0  0  0 
  5  9  1  0  0  0  0 
  7  6  2  0  0  0  0 
  6 10  1  0  0  0  0 
 11  8  1  0  0  0  0 
  8 12  1  6  0  0  0 
  8 13  1  0  0  0  0 
 13  9  1  0  0  0  0 
  9 14  1  6  0  0  0 
 15 11  1  0  0  0  0 
 16 12  1  0  0  0  0 
 13 17  1  0  0  0  0 
 14 16  1  0  0  0  0 
 14 18  1  0  0  0  0 
 19 15  1  0  0  0  0 
 17 19  1  0  0  0  0 
M  END
> <Name>
Morphinan-3-ol, 17-methyl-, (9alpha,13alpha,14alpha)-

> <Source>
NIST2DMolFile

> <Tox>
2.644

> <CAS>
125-73-5

$$$$

  CDK

 30 35  0  0  0  0  0  0  0  0999 V2000
    1.4979    2.5964    0.0000 C   0  0  0  0  0  0  0  0  0  0  0  0
    0.9988    1.6977    0.0000 C   0  0  0  0  0  0  0  0  0  0  0  0
    2.4967    2.5964    0.0000 C   0  0  0  0  0  0  0  0  0  0  0  0
    1.4979    0.8490    0.0000 C   0  0  0  0  0  0  0  0  0  0  0  0
    0.0000    1.6977    0.0000 O   0  0  0  0  0  0  0  0  0  0  0  0
    2.9959    1.6977    0.0000 C   0  0  0  0  0  0  0  0  0  0  0  0
    2.4967    0.8490    0.0000 C   0  0  0  0  0  0  0  0  0  0  0  0
    3.9946    1.6977    0.0000 C   0  0  0  0  0  0  0  0  0  0  0  0
    3.4954    2.5964    0.0000 C   0  0  0  0  0  0  0  0  0  0  0  0
    2.9959    0.0000    0.0000 C   0  0  0  0  0  0  0  0  0  0  0  0
    4.4938    0.8490    0.0000 C   0  0  0  0  0  0  0  0  0  0  0  0
    4.4938    2.5964    0.0000 C   0  0  0  0  0  0  0  0  0  0  0  0
    3.9946    0.0000    0.0000 C   0  0  0  0  0  0  0  0  0  0  0  0
    5.4925    0.8490    0.0000 C   0  0  0  0  0  0  0  0  0  0  0  0
    5.4925    2.5964    0.0000 C   0  0  0  0  0  0  0  0  0  0  0  0
    5.9921    1.6977    0.0000 C   0  0  0  0  0  0  0  0  0  0  0  0
    6.1418    0.0997    0.0000 C   0  0  0  0  0  0  0  0  0  0  0  0
    6.9905    1.4979    0.0000 C   0  0  0  0  0  0  0  0  0  0  0  0
    6.6410    2.4967    0.0000 C   0  0  0  0  0  0  0  0  0  0  0  0
    7.0905    0.4992    0.0000 C   0  0  0  0  0  0  0  0  0  0  0  0
    7.8894    1.8974    0.0000 C   0  0  0  0  0  0  0  0  0  0  0  0
    8.0391    0.2995    0.0000 O   0  0  0  0  0  0  0  0  0  0  0  0
    8.5383    1.1485    0.0000 C   0  0  0  0  0  0  0  0  0  0  0  0
    8.0892    2.8962    0.0000 C   0  0  0  0  0  0  0  0  0  0  0  0
    8.9378    1.7977    0.0000 C   0  0  0  0  0  0  0  0  0  0  0  0
    8.9378    0.0500    0.0000 N   0  0  0  0  0  0  0  0  0  0  0  0
    9.9366    1.7977    0.0000 C   0  0  0  0  0  0  0  0  0  0  0  0
    9.9366    0.0500    0.0000 C   0  0  0  0  0  0  0  0  0  0  0  0
   10.4357    0.9487    0.0000 C   0  0  0  0  0  0  0  0  0  0  0  0
   11.4345    0.9487    0.0000 C   0  0  0  0  0  0  0  0  0  0  0  0
  2  1  1  0  0  0  0 
  1  3  1  0  0  0  0 
  4  2  1  0  0  0  0 
  2  5  1  1  0  0  0 
  3  6  1  0  0  0  0 
  7  4  1  0  0  0  0 
  7  6  1  0  0  0  0 
  6  8  1  0  0  0  0 
  6  9  1  0  0  0  0 
 10  7  2  0  0  0  0 
 11  8  1  0  0  0  0 
  8 12  1  0  0  0  0 
 13 10  1  0  0  0  0 
 11 13  1  0  0  0  0 
 14 11  1  0  0  0  0 
 12 15  1  0  0  0  0 
 14 16  1  0  0  0  0 
 17 14  1  0  0  0  0 
 15 16  1  0  0  0  0 
 16 18  1  0  0  0  0 
 16 19  1  0  0  0  0 
 20 17  1  0  0  0  0 
 20 18  1  0  0  0  0 
 18 21  1  0  0  0  0 
 22 20  1  0  0  0  0 
 21 23  1  0  0  0  0 
 21 24  1  0  0  0  0 
 23 22  1  0  0  0  0 
 23 25  1  0  0  0  0 
 26 23  1  0  0  0  0 
 25 27  1  0  0  0  0 
 28 26  1  0  0  0  0 
 27 29  1  0  0  0  0 
 29 28  1  0  0  0  0 
 29 30  1  0  0  0  0 
M  END
> <Name>
Spirosol-5-en-3-ol, (3beta,22alpha,25R)- (9CI)

> <Source>
NIST2DMolFile

> <Tox>
1.920

> <CAS>
126-17-0

$$$$

  CDK

 34 35  0  0  0  0  0  0  0  0999 V2000
    5.7621  -10.5902    0.0000 C   0  0  0  0  0  0  0  0  0  0  0  0
    5.7621   -9.2622    0.0000 N   0  0  0  0  0  0  0  0  0  0  0  0
    4.6030   -8.5982    0.0000 C   0  0  0  0  0  0  0  0  0  0  0  0
    6.9101   -8.5982    0.0000 C   0  0  0  0  0  0  0  0  0  0  0  0
    4.6030   -7.2702    0.0000 O   0  0  0  0  0  0  0  0  0  0  0  0
    3.4550   -9.2622    0.0000 C   0  0  0  0  0  0  0  0  0  0  0  0
    7.5741   -9.7461    0.0000 C   0  0  0  0  0  0  0  0  0  0  0  0
    8.0580   -7.9342    0.0000 C   0  0  0  0  0  0  0  0  0  0  0  0
    6.2461   -7.4390    0.0000 C   0  0  0  0  0  0  0  0  0  0  0  0
    2.3071   -8.5982    0.0000 N   0  0  0  0  0  0  0  0  0  0  0  0
    6.9101   -6.2911    0.0000 C   0  0  0  0  0  0  0  0  0  0  0  0
    1.1479   -9.2622    0.0000 C   0  0  0  0  0  0  0  0  0  0  0  0
    2.3071   -7.2702    0.0000 C   0  0  0  0  0  0  0  0  0  0  0  0
    6.2461   -5.1432    0.0000 C   0  0  0  0  0  0  0  0  0  0  0  0
    8.2381   -6.2911    0.0000 C   0  0  0  0  0  0  0  0  0  0  0  0
    1.1479  -10.5902    0.0000 C   0  0  0  0  0  0  0  0  0  0  0  0
    1.1479   -6.5950    0.0000 C   0  0  0  0  0  0  0  0  0  0  0  0
    6.9101   -3.9840    0.0000 C   0  0  0  0  0  0  0  0  0  0  0  0
    8.9021   -5.1432    0.0000 C   0  0  0  0  0  0  0  0  0  0  0  0
    2.3071  -11.2542    0.0000 O   0  0  0  0  0  0  0  0  0  0  0  0
    0.0000   -7.2702    0.0000 O   0  0  0  0  0  0  0  0  0  0  0  0
    1.1479   -5.2670    0.0000 N   0  0  0  0  0  0  0  0  0  0  0  0
    8.2381   -3.9840    0.0000 C   0  0  0  0  0  0  0  0  0  0  0  0
    0.0000   -4.6030    0.0000 C   0  0  0  0  0  0  0  0  0  0  0  0
    2.3071   -4.6030    0.0000 C   0  0  0  0  0  0  0  0  0  0  0  0
    2.9711   -5.7621    0.0000 C   0  0  0  0  0  0  0  0  0  0  0  0
    3.4550   -3.9390    0.0000 C   0  0  0  0  0  0  0  0  0  0  0  0
    1.6431   -3.4550    0.0000 C   0  0  0  0  0  0  0  0  0  0  0  0
    2.3071   -2.3071    0.0000 C   0  0  0  0  0  0  0  0  0  0  0  0
    3.6351   -2.3071    0.0000 C   0  0  0  0  0  0  0  0  0  0  0  0
    1.6431   -1.1479    0.0000 C   0  0  0  0  0  0  0  0  0  0  0  0
    4.2991   -1.1479    0.0000 C   0  0  0  0  0  0  0  0  0  0  0  0
    2.3071   -0.0000    0.0000 C   0  0  0  0  0  0  0  0  0  0  0  0
    3.6351   -0.0000    0.0000 C   0  0  0  0  0  0  0  0  0  0  0  0
  1  2  1  0  0  0  0 
  2  3  1  0  0  0  0 
  2  4  1  0  0  0  0 
  3  5  2  0  0  0  0 
  3  6  1  0  0  0  0 
  4  7  1  0  0  0  0 
  4  8  1  0  0  0  0 
  4  9  1  0  0  0  0 
  6 10  1  0  0  0  0 
  9 11  1  0  0  0  0 
 10 12  1  0  0  0  0 
 10 13  1  0  0  0  0 
 11 14  2  0  0  0  0 
 11 15  1  0  0  0  0 
 12 16  1  0  0  0  0 
 13 17  1  0  0  0  0 
 14 18  1  0  0  0  0 
 19 15  2  0  0  0  0 
 16 20  1  0  0  0  0 
 17 21  2  0  0  0  0 
 17 22  1  0  0  0  0 
 18 23  2  0  0  0  0 
 23 19  1  0  0  0  0 
 22 24  1  0  0  0  0 
 22 25  1  0  0  0  0 
 25 26  1  0  0  0  0 
 25 27  1  0  0  0  0 
 25 28  1  0  0  0  0 
 28 29  1  0  0  0  0 
 29 30  2  0  0  0  0 
 29 31  1  0  0  0  0 
 30 32  1  0  0  0  0 
 33 31  2  0  0  0  0 
 32 34  2  0  0  0  0 
 34 33  1  0  0  0  0 
M  END
> <Name>
Acetamide, 2,2'-((2-hydroxyethyl)imino)bis(N-(alpha,alpha-dimethylphenethyl)-N-methyl-

> <Source>
DSSTox2DMolFile

> <Tox>
2.670

> <CAS>
126-27-2

$$$$

  CDK

  7  7  0  0  0  0  0  0  0  0999 V2000
    1.2173   -1.2683    0.0000 S   0  0  0  0  0  0  0  0  0  0  0  0
    2.1014   -2.2442    0.0000 C   0  0  0  0  0  0  0  0  0  0  0  0
    0.0000   -1.7953    0.0000 C   0  0  0  0  0  0  0  0  0  0  0  0
    2.1014   -0.2720    0.0000 O   0  0  0  0  0  0  0  0  0  0  0  0
    0.8025   -0.0000    0.0000 O   0  0  0  0  0  0  0  0  0  0  0  0
    1.4451   -3.4003    0.0000 C   0  0  0  0  0  0  0  0  0  0  0  0
    0.1428   -3.1283    0.0000 C   0  0  0  0  0  0  0  0  0  0  0  0
  1  2  1  0  0  0  0 
  1  3  1  0  0  0  0 
  1  4  2  0  0  0  0 
  1  5  2  0  0  0  0 
  2  6  1  0  0  0  0 
  3  7  1  0  0  0  0 
  7  6  1  0  0  0  0 
M  END
> <Name>
Thiophene, tetrahydro-, 1,1-dioxide

> <Source>
DSSTox2DMolFile

> <Tox>
1.792

> <CAS>
126-33-0

$$$$

  CDK

 14 13  0  0  0  0  0  0  0  0999 V2000
    3.5063    2.5045    0.0000 S   0  0  0  0  0  0  0  0  0  0  0  0
    2.4544    2.5045    0.0000 P   0  0  0  0  0  0  0  0  0  0  0  0
    4.0072    3.3560    0.0000 C   0  0  0  0  0  0  0  0  0  0  0  0
    1.5027    2.5045    0.0000 O   0  0  0  0  0  0  0  0  0  0  0  0
    2.4544    1.5528    0.0000 O   0  0  0  0  0  0  0  0  0  0  0  0
    2.4544    3.5063    0.0000 O   0  0  0  0  0  0  0  0  0  0  0  0
    5.0591    3.3560    0.0000 C   0  0  0  0  0  0  0  0  0  0  0  0
    1.0018    3.4061    0.0000 C   0  0  0  0  0  0  0  0  0  0  0  0
    1.6029    1.0018    0.0000 C   0  0  0  0  0  0  0  0  0  0  0  0
    5.5600    4.2075    0.0000 S   0  0  0  0  0  0  0  0  0  0  0  0
    0.0000    3.4061    0.0000 C   0  0  0  0  0  0  0  0  0  0  0  0
    1.6029    0.0000    0.0000 C   0  0  0  0  0  0  0  0  0  0  0  0
    6.5117    4.2075    0.0000 C   0  0  0  0  0  0  0  0  0  0  0  0
    7.0626    5.0591    0.0000 C   0  0  0  0  0  0  0  0  0  0  0  0
  1  2  1  0  0  0  0 
  1  3  1  0  0  0  0 
  2  4  1  0  0  0  0 
  2  5  1  0  0  0  0 
  2  6  2  0  0  0  0 
  3  7  1  0  0  0  0 
  4  8  1  0  0  0  0 
  5  9  1  0  0  0  0 
  7 10  1  0  0  0  0 
  8 11  1  0  0  0  0 
  9 12  1  0  0  0  0 
 10 13  1  0  0  0  0 
 13 14  1  0  0  0  0 
M  END
> <Name>
Phosphorothioic acid, O,O-diethyl S-(2-(ethylthio)ethyl) ester

> <Source>
NIST2DMolFile

> <Tox>
5.236

> <CAS>
126-75-0

$$$$

  CDK

  6  5  0  0  0  0  0  0  0  0999 V2000
    2.3053   -1.3272    0.0000 C   0  0  0  0  0  0  0  0  0  0  0  0
    1.1509   -2.0012    0.0000 N   0  0  0  0  0  0  0  0  0  0  0  0
    2.3053   -0.0000    0.0000 O   0  0  0  0  0  0  0  0  0  0  0  0
    3.4563   -2.0012    0.0000 C   0  0  0  0  0  0  0  0  0  0  0  0
    1.1509   -3.3284    0.0000 C   0  0  0  0  0  0  0  0  0  0  0  0
    0.0000   -1.3445    0.0000 C   0  0  0  0  0  0  0  0  0  0  0  0
  1  2  1  0  0  0  0 
  1  3  2  0  0  0  0 
  1  4  1  0  0  0  0 
  2  5  1  0  0  0  0 
  2  6  1  0  0  0  0 
M  END
> <Name>
Acetamide, N,N-dimethyl-

> <Source>
DSSTox2DMolFile

> <Tox>
1.307

> <CAS>
127-19-5

$$$$

  CDK

 19 19  0  0  0  0  0  0  0  0999 V2000
    3.0038    1.7522    0.0000 N   0  0  0  0  0  0  0  0  0  0  0  0
    4.0050    1.7522    0.0000 S   0  0  0  0  0  0  0  0  0  0  0  0
    2.5032    2.6033    0.0000 C   0  0  0  0  0  0  0  0  0  0  0  0
    2.5032    0.9011    0.0000 C   0  0  0  0  0  0  0  0  0  0  0  0
    4.0050    2.7535    0.0000 O   0  0  0  0  0  0  0  0  0  0  0  0
    4.0050    0.7509    0.0000 O   0  0  0  0  0  0  0  0  0  0  0  0
    5.0063    1.7522    0.0000 C   0  0  0  0  0  0  0  0  0  0  0  0
    1.5019    2.6033    0.0000 C   0  0  0  0  0  0  0  0  0  0  0  0
    1.5019    0.9011    0.0000 C   0  0  0  0  0  0  0  0  0  0  0  0
    5.5069    2.6033    0.0000 C   0  0  0  0  0  0  0  0  0  0  0  0
    5.5069    0.9011    0.0000 C   0  0  0  0  0  0  0  0  0  0  0  0
    1.0013    3.5044    0.0000 C   0  0  0  0  0  0  0  0  0  0  0  0
    1.0013    0.0000    0.0000 C   0  0  0  0  0  0  0  0  0  0  0  0
    6.5082    2.6033    0.0000 C   0  0  0  0  0  0  0  0  0  0  0  0
    6.5082    0.9011    0.0000 C   0  0  0  0  0  0  0  0  0  0  0  0
    0.0000    3.5044    0.0000 C   0  0  0  0  0  0  0  0  0  0  0  0
    0.0000    0.0000    0.0000 C   0  0  0  0  0  0  0  0  0  0  0  0
    7.0088    1.7522    0.0000 C   0  0  0  0  0  0  0  0  0  0  0  0
    8.0101    1.7522    0.0000 Cl  0  0  0  0  0  0  0  0  0  0  0  0
  1  2  1  0  0  0  0 
  1  3  1  0  0  0  0 
  1  4  1  0  0  0  0 
  2  5  2  0  0  0  0 
  2  6  2  0  0  0  0 
  2  7  1  0  0  0  0 
  3  8  1  0  0  0  0 
  4  9  1  0  0  0  0 
 10  7  2  0  0  0  0 
  7 11  1  0  0  0  0 
  8 12  1  0  0  0  0 
  9 13  1  0  0  0  0 
 14 10  1  0  0  0  0 
 11 15  2  0  0  0  0 
 12 16  1  0  0  0  0 
 13 17  1  0  0  0  0 
 18 14  2  0  0  0  0 
 15 18  1  0  0  0  0 
 18 19  1  0  0  0  0 
M  END
> <Name>
Benzenesulfonamide, N,N-dibutyl-4-chloro-

> <Source>
NIST2DMolFile

> <Tox>
2.784

> <CAS>
127-59-3

$$$$

  CDK

 30 34  0  0  0  0  0  0  0  0999 V2000
    3.2950   -6.0911    0.0000 C   0  0  0  0  0  0  0  0  0  0  0  0
    4.4436   -5.4298    0.0000 N   0  0  0  0  0  0  0  0  0  0  0  0
    2.1348   -5.4298    0.0000 C   0  0  0  0  0  0  0  0  0  0  0  0
    4.4436   -4.0956    0.0000 C   0  0  0  0  0  0  0  0  0  0  0  0
    5.5922   -6.0911    0.0000 C   0  0  0  0  0  0  0  0  0  0  0  0
    2.1348   -4.0956    0.0000 C   0  0  0  0  0  0  0  0  0  0  0  0
    3.2950   -3.4342    0.0000 C   0  0  0  0  0  0  0  0  0  0  0  0
    5.5922   -3.4342    0.0000 C   0  0  0  0  0  0  0  0  0  0  0  0
    0.9862   -3.4342    0.0000 C   0  0  0  0  0  0  0  0  0  0  0  0
    3.2950   -2.1000    0.0000 C   0  0  0  0  0  0  0  0  0  0  0  0
    6.8105   -3.9679    0.0000 C   0  0  0  0  0  0  0  0  0  0  0  0
    5.7315   -2.1116    0.0000 O   0  0  0  0  0  0  0  0  0  0  0  0
    0.9862   -2.1000    0.0000 C   0  0  0  0  0  0  0  0  0  0  0  0
    2.1348   -1.4387    0.0000 C   0  0  0  0  0  0  0  0  0  0  0  0
    4.4436   -1.4387    0.0000 O   0  0  0  0  0  0  0  0  0  0  0  0
    7.2166   -5.2326    0.0000 C   0  0  0  0  0  0  0  0  0  0  0  0
    7.7038   -2.9818    0.0000 C   0  0  0  0  0  0  0  0  0  0  0  0
    7.0309   -1.8331    0.0000 C   0  0  0  0  0  0  0  0  0  0  0  0
    0.0000   -1.2066    0.0000 O   0  0  0  0  0  0  0  0  0  0  0  0
    1.8680   -0.1392    0.0000 O   0  0  0  0  0  0  0  0  0  0  0  0
    4.4436   -0.1044    0.0000 C   0  0  0  0  0  0  0  0  0  0  0  0
    8.5160   -5.5110    0.0000 C   0  0  0  0  0  0  0  0  0  0  0  0
    9.0033   -3.2602    0.0000 C   0  0  0  0  0  0  0  0  0  0  0  0
    7.5762   -0.6149    0.0000 O   0  0  0  0  0  0  0  0  0  0  0  0
    0.5453   -0.0000    0.0000 C   0  0  0  0  0  0  0  0  0  0  0  0
    9.4094   -4.5248    0.0000 C   0  0  0  0  0  0  0  0  0  0  0  0
    9.8851   -2.2740    0.0000 O   0  0  0  0  0  0  0  0  0  0  0  0
   10.7088   -4.8033    0.0000 O   0  0  0  0  0  0  0  0  0  0  0  0
   11.1961   -2.5525    0.0000 C   0  0  0  0  0  0  0  0  0  0  0  0
   11.6022   -3.8171    0.0000 C   0  0  0  0  0  0  0  0  0  0  0  0
  1  2  1  0  0  0  0 
  1  3  1  0  0  0  0 
  4  2  1  6  0  0  0 
  2  5  1  0  0  0  0 
  6  3  1  0  0  0  0 
  4  7  1  0  0  0  0 
  4  8  1  0  0  0  0 
  7  6  2  0  0  0  0 
  6  9  1  0  0  0  0 
  7 10  1  0  0  0  0 
  8 11  1  0  0  0  0 
  8 12  1  1  0  0  0 
  9 13  2  0  0  0  0 
 14 10  2  0  0  0  0 
 10 15  1  0  0  0  0 
 11 16  2  0  0  0  0 
 11 17  1  0  0  0  0 
 18 12  1  0  0  0  0 
 13 19  1  0  0  0  0 
 13 14  1  0  0  0  0 
 20 14  1  0  0  0  0 
 15 21  1  0  0  0  0 
 16 22  1  0  0  0  0 
 23 17  2  0  0  0  0 
 17 18  1  0  0  0  0 
 18 24  2  0  0  0  0 
 19 25  1  0  0  0  0 
 25 20  1  0  0  0  0 
 22 26  2  0  0  0  0 
 26 23  1  0  0  0  0 
 23 27  1  0  0  0  0 
 26 28  1  0  0  0  0 
 27 29  1  0  0  0  0 
 28 30  1  0  0  0  0 
M  END
> <Name>
1(3H)-Isobenzofuranone, 6,7-dimethoxy-3-(5,6,7,8-tetrahydro-4-methoxy-6-methyl-1,3-dioxolo(4,5-g)-isoquinolin-5-yl), (S-(R*,S*))-

> <Source>
DSSTox2DMolFile

> <Tox>
2.435

> <CAS>
128-62-1

$$$$

  CDK

 51 58  0  0  0  0  0  0  0  0999 V2000
    0.0000    0.0000    0.0000 O   0  0  0  0  0  0  0  0  0  0  0  0
    0.0400    0.5400   -1.0800 C   0  0  0  0  0  0  0  0  0  0  0  0
    0.5800   -0.1200   -2.3200 C   0  0  0  0  0  0  0  0  0  0  0  0
   -0.4400    1.9600   -1.2200 C   0  0  0  0  0  0  0  0  0  0  0  0
    1.0600   -1.4600   -2.2400 C   0  0  0  0  0  0  0  0  0  0  0  0
    0.6200    0.5600   -3.5600 C   0  0  0  0  0  0  0  0  0  0  0  0
   -0.9400    2.6000   -0.0800 C   0  0  0  0  0  0  0  0  0  0  0  0
   -0.4000    2.6400   -2.4600 C   0  0  0  0  0  0  0  0  0  0  0  0
    1.5800   -2.1000   -3.3800 C   0  0  0  0  0  0  0  0  0  0  0  0
    1.0600   -2.2200   -1.0800 N   0  0  0  0  0  0  0  0  0  0  0  0
    1.1400   -0.1000   -4.7200 C   0  0  0  0  0  0  0  0  0  0  0  0
    0.1200    1.9800   -3.7000 C   0  0  0  0  0  0  0  0  0  0  0  0
   -1.4200    3.9400   -0.1800 C   0  0  0  0  0  0  0  0  0  0  0  0
   -0.8800    3.9600   -2.5400 C   0  0  0  0  0  0  0  0  0  0  0  0
    1.6200   -1.4200   -4.6000 C   0  0  0  0  0  0  0  0  0  0  0  0
    0.5600   -3.5000   -1.1000 C   0  0  0  0  0  0  0  0  0  0  0  0
    1.2400    0.4600   -5.9600 N   0  0  0  0  0  0  0  0  0  0  0  0
    0.1400    2.6000   -4.7400 O   0  0  0  0  0  0  0  0  0  0  0  0
   -1.3800    4.6000   -1.4000 C   0  0  0  0  0  0  0  0  0  0  0  0
    0.8600   -4.5000   -0.1400 C   0  0  0  0  0  0  0  0  0  0  0  0
   -0.3400   -3.7800   -2.1600 C   0  0  0  0  0  0  0  0  0  0  0  0
    0.1000    0.8400   -6.6200 C   0  0  0  0  0  0  0  0  0  0  0  0
    0.2600   -5.8000   -0.2600 C   0  0  0  0  0  0  0  0  0  0  0  0
    1.8200   -4.1800    0.9800 C   0  0  0  0  0  0  0  0  0  0  0  0
   -0.9200   -5.0400   -2.2600 C   0  0  0  0  0  0  0  0  0  0  0  0
   -0.9800    0.6800   -6.1200 O   0  0  0  0  0  0  0  0  0  0  0  0
    0.2200    1.4400   -7.9800 C   0  0  0  0  0  0  0  0  0  0  0  0
   -0.6400   -6.0600   -1.3400 C   0  0  0  0  0  0  0  0  0  0  0  0
    0.5800   -6.8800    0.7400 C   0  0  0  0  0  0  0  0  0  0  0  0
    2.1200   -5.2800    1.9600 C   0  0  0  0  0  0  0  0  0  0  0  0
    2.3400   -3.1000    1.1000 O   0  0  0  0  0  0  0  0  0  0  0  0
   -0.9200    1.8400   -8.6800 C   0  0  0  0  0  0  0  0  0  0  0  0
    1.5000    1.6200   -8.5600 C   0  0  0  0  0  0  0  0  0  0  0  0
   -1.2600   -7.2600   -1.5400 N   0  0  0  0  0  0  0  0  0  0  0  0
    0.1000   -8.0000    0.6600 O   0  0  0  0  0  0  0  0  0  0  0  0
    1.5400   -6.5600    1.8400 C   0  0  0  0  0  0  0  0  0  0  0  0
    3.0200   -5.0000    3.0000 C   0  0  0  0  0  0  0  0  0  0  0  0
   -0.8000    2.4200   -9.9600 C   0  0  0  0  0  0  0  0  0  0  0  0
    1.6200    2.2000   -9.8400 C   0  0  0  0  0  0  0  0  0  0  0  0
   -2.1400   -7.7400   -0.6000 C   0  0  0  0  0  0  0  0  0  0  0  0
    1.8600   -7.5600    2.7800 C   0  0  0  0  0  0  0  0  0  0  0  0
    3.3200   -6.0200    3.9400 C   0  0  0  0  0  0  0  0  0  0  0  0
    0.4600    2.6000  -10.5400 C   0  0  0  0  0  0  0  0  0  0  0  0
   -2.3600   -7.1000    0.4000 O   0  0  0  0  0  0  0  0  0  0  0  0
   -2.8200   -9.0400   -0.8400 C   0  0  0  0  0  0  0  0  0  0  0  0
    2.7400   -7.2800    3.8200 C   0  0  0  0  0  0  0  0  0  0  0  0
   -3.7200   -9.5600    0.1200 C   0  0  0  0  0  0  0  0  0  0  0  0
   -2.5600   -9.7600   -2.0200 C   0  0  0  0  0  0  0  0  0  0  0  0
   -4.3600  -10.7800   -0.1200 C   0  0  0  0  0  0  0  0  0  0  0  0
   -3.2000  -11.0000   -2.2400 C   0  0  0  0  0  0  0  0  0  0  0  0
   -4.1000  -11.5000   -1.2800 C   0  0  0  0  0  0  0  0  0  0  0  0
  1  2  2  0  0  0  0 
  2  3  1  0  0  0  0 
  2  4  1  0  0  0  0 
  3  5  2  0  0  0  0 
  3  6  1  0  0  0  0 
  7  4  2  0  0  0  0 
  8  4  1  0  0  0  0 
  5  9  1  0  0  0  0 
  5 10  1  0  0  0  0 
 11  6  2  0  0  0  0 
  6 12  1  0  0  0  0 
 13  7  1  0  0  0  0 
 12  8  1  0  0  0  0 
  8 14  2  0  0  0  0 
  9 15  2  0  0  0  0 
 10 16  1  0  0  0  0 
 15 11  1  0  0  0  0 
 11 17  1  0  0  0  0 
 12 18  2  0  0  0  0 
 19 13  2  0  0  0  0 
 14 19  1  0  0  0  0 
 16 20  2  0  0  0  0 
 16 21  1  0  0  0  0 
 17 22  1  0  0  0  0 
 20 23  1  0  0  0  0 
 20 24  1  0  0  0  0 
 25 21  2  0  0  0  0 
 22 26  2  0  0  0  0 
 22 27  1  0  0  0  0 
 23 28  2  0  0  0  0 
 23 29  1  0  0  0  0 
 30 24  1  0  0  0  0 
 24 31  2  0  0  0  0 
 28 25  1  0  0  0  0 
 27 32  2  0  0  0  0 
 27 33  1  0  0  0  0 
 28 34  1  0  0  0  0 
 29 35  2  0  0  0  0 
 29 36  1  0  0  0  0 
 37 30  2  0  0  0  0 
 36 30  1  0  0  0  0 
 32 38  1  0  0  0  0 
 39 33  2  0  0  0  0 
 34 40  1  0  0  0  0 
 36 41  2  0  0  0  0 
 42 37  1  0  0  0  0 
 38 43  2  0  0  0  0 
 43 39  1  0  0  0  0 
 40 44  2  0  0  0  0 
 40 45  1  0  0  0  0 
 41 46  1  0  0  0  0 
 46 42  2  0  0  0  0 
 45 47  2  0  0  0  0 
 45 48  1  0  0  0  0 
 47 49  1  0  0  0  0 
 50 48  2  0  0  0  0 
 49 51  2  0  0  0  0 
 51 50  1  0  0  0  0 
M  END
> <Name>
Benzamide, N,N'-(iminobis(9,10-dihydro-9,10-dioxo-4,1-anthracenediyl))bis-

> <Source>
NIH3DMolFile

> <Tox>
1.539

> <CAS>
128-79-0

$$$$

  CDK

 24 26  0  0  0  0  0  0  0  0999 V2000
    4.4109    0.9524    0.0000 C   0  0  0  0  0  0  0  0  0  0  0  0
    4.7116    0.0000    0.0000 O   0  0  0  0  0  0  0  0  0  0  0  0
    5.0124    1.7543    0.0000 N   0  0  0  0  0  0  0  0  0  0  0  0
    3.4585    1.2531    0.0000 C   0  0  0  0  0  0  0  0  0  0  0  0
    4.4109    2.5563    0.0000 N   0  0  0  0  0  0  0  0  0  0  0  0
    6.0149    1.7543    0.0000 C   0  0  0  0  0  0  0  0  0  0  0  0
    2.6566    0.6516    0.0000 C   0  0  0  0  0  0  0  0  0  0  0  0
    3.4585    2.3057    0.0000 C   0  0  0  0  0  0  0  0  0  0  0  0
    4.7116    3.5087    0.0000 C   0  0  0  0  0  0  0  0  0  0  0  0
    6.5161    2.6064    0.0000 C   0  0  0  0  0  0  0  0  0  0  0  0
    6.5161    0.9022    0.0000 C   0  0  0  0  0  0  0  0  0  0  0  0
    1.7543    1.0526    0.0000 C   0  0  0  0  0  0  0  0  0  0  0  0
    2.6566    2.8571    0.0000 O   0  0  0  0  0  0  0  0  0  0  0  0
    4.0600    4.2605    0.0000 C   0  0  0  0  0  0  0  0  0  0  0  0
    5.7141    3.7092    0.0000 C   0  0  0  0  0  0  0  0  0  0  0  0
    7.5186    2.6064    0.0000 C   0  0  0  0  0  0  0  0  0  0  0  0
    7.5186    0.9022    0.0000 C   0  0  0  0  0  0  0  0  0  0  0  0
    0.9022    0.5012    0.0000 C   0  0  0  0  0  0  0  0  0  0  0  0
    4.3608    5.2129    0.0000 C   0  0  0  0  0  0  0  0  0  0  0  0
    6.0149    4.6615    0.0000 C   0  0  0  0  0  0  0  0  0  0  0  0
    8.0198    1.7543    0.0000 C   0  0  0  0  0  0  0  0  0  0  0  0
    0.0000    0.9022    0.0000 C   0  0  0  0  0  0  0  0  0  0  0  0
    5.3633    5.4134    0.0000 C   0  0  0  0  0  0  0  0  0  0  0  0
    9.0223    1.7543    0.0000 O   0  0  0  0  0  0  0  0  0  0  0  0
  1  2  2  0  0  0  0 
  1  3  1  0  0  0  0 
  4  1  1  0  0  0  0 
  3  5  1  0  0  0  0 
  3  6  1  0  0  0  0 
  4  7  1  0  0  0  0 
  8  4  1  0  0  0  0 
  5  8  1  0  0  0  0 
  5  9  1  0  0  0  0 
 10  6  2  0  0  0  0 
  6 11  1  0  0  0  0 
  7 12  1  0  0  0  0 
  8 13  2  0  0  0  0 
 14  9  2  0  0  0  0 
  9 15  1  0  0  0  0 
 16 10  1  0  0  0  0 
 11 17  2  0  0  0  0 
 12 18  1  0  0  0  0 
 19 14  1  0  0  0  0 
 15 20  2  0  0  0  0 
 21 16  2  0  0  0  0 
 17 21  1  0  0  0  0 
 18 22  1  0  0  0  0 
 23 19  2  0  0  0  0 
 20 23  1  0  0  0  0 
 21 24  1  0  0  0  0 
M  END
> <Name>
3,5-Pyrazolidinedione, 4-butyl-1-(p-hydroxyphenyl)-2-phenyl- (VAN) (8CI)

> <Source>
NIST2DMolFile

> <Tox>
2.994

> <CAS>
129-20-4

$$$$

  CDK

 24 26  0  0  0  0  0  0  0  0999 V2000
    2.5680    4.7392    0.0000 C   0  0  0  0  0  0  0  0  0  0  0  0
    1.7126    4.2387    0.0000 C   0  0  0  0  0  0  0  0  0  0  0  0
    3.4194    4.2334    0.0000 C   0  0  0  0  0  0  0  0  0  0  0  0
    0.8590    4.7315    0.0000 C   0  0  0  0  0  0  0  0  0  0  0  0
    1.7126    3.2476    0.0000 C   0  0  0  0  0  0  0  0  0  0  0  0
    4.2851    4.7402    0.0000 C   0  0  0  0  0  0  0  0  0  0  0  0
    3.4253    3.2358    0.0000 C   0  0  0  0  0  0  0  0  0  0  0  0
    0.0000    4.2387    0.0000 C   0  0  0  0  0  0  0  0  0  0  0  0
    0.8590    2.7493    0.0000 O   0  0  0  0  0  0  0  0  0  0  0  0
    2.5686    2.7517    0.0000 O   0  0  0  0  0  0  0  0  0  0  0  0
    5.1567    4.2493    0.0000 C   0  0  0  0  0  0  0  0  0  0  0  0
    4.9813    5.4500    0.0000 C   0  0  0  0  0  0  0  0  0  0  0  0
    3.5747    5.4500    0.0000 O   0  0  0  0  0  0  0  0  0  0  0  0
    2.5768    1.6126    0.0000 C   0  0  0  0  0  0  0  0  0  0  0  0
    5.9887    4.7455    0.0000 O   0  0  0  0  0  0  0  0  0  0  0  0
    5.1606    3.2441    0.0000 O   0  0  0  0  0  0  0  0  0  0  0  0
    3.3632    1.3500    0.0000 C   0  0  0  0  0  0  0  0  0  0  0  0
    1.9009    0.7951    0.0000 C   0  0  0  0  0  0  0  0  0  0  0  0
    4.2949    2.7375    0.0000 C   0  0  0  0  0  0  0  0  0  0  0  0
    3.4071    0.3042    0.0000 N   0  0  0  0  0  0  0  0  0  0  0  0
    4.2613    1.6119    0.0000 C   0  0  0  0  0  0  0  0  0  0  0  0
    2.4768    0.0026    0.0000 C   0  0  0  0  0  0  0  0  0  0  0  0
    4.3395    0.0000    0.0000 C   0  0  0  0  0  0  0  0  0  0  0  0
    4.9170    0.7928    0.0000 C   0  0  0  0  0  0  0  0  0  0  0  0
  2  1  1  0  0  0  0 
  1  3  1  0  0  0  0 
  2  4  2  0  0  0  0 
  5  2  1  0  0  0  0 
  3  6  1  0  0  0  0 
  3  7  1  6  0  0  0 
  4  8  1  0  0  0  0 
  5  9  2  0  0  0  0 
 10  5  1  0  0  0  0 
  6 11  1  0  0  0  0 
  6 12  1  6  0  0  0 
  6 13  1  1  0  0  0 
 14 10  1  1  0  0  0 
 11 15  2  0  0  0  0 
 11 16  1  0  0  0  0 
 14 17  1  0  0  0  0 
 18 14  1  0  0  0  0 
 16 19  1  0  0  0  0 
 20 17  1  0  0  0  0 
 17 21  1  0  0  0  0 
 22 18  1  0  0  0  0 
 19 21  1  0  0  0  0 
 20 22  1  0  0  0  0 
 23 20  1  0  0  0  0 
 21 24  2  0  0  0  0 
 24 23  1  0  0  0  0 
M  END
> <Name>
Senecionan-11,16-dione, 12-hydroxy-

> <Source>
NIST2DMolFile

> <Tox>
3.596

> <CAS>
130-01-8

$$$$

  CDK

 18 19  0  0  0  0  0  0  0  0999 V2000
    3.4058    3.0552    0.0000 O   0  0  0  0  0  0  0  0  0  0  0  0
    3.4058    2.0034    0.0000 C   0  0  0  0  0  0  0  0  0  0  0  0
    2.5544    1.5026    0.0000 C   0  0  0  0  0  0  0  0  0  0  0  0
    4.3074    1.5527    0.0000 C   0  0  0  0  0  0  0  0  0  0  0  0
    1.7029    2.0034    0.0000 C   0  0  0  0  0  0  0  0  0  0  0  0
    2.5544    0.5009    0.0000 C   0  0  0  0  0  0  0  0  0  0  0  0
    5.1589    2.0535    0.0000 C   0  0  0  0  0  0  0  0  0  0  0  0
    4.3074    0.5509    0.0000 C   0  0  0  0  0  0  0  0  0  0  0  0
    1.7029    3.0052    0.0000 O   0  0  0  0  0  0  0  0  0  0  0  0
    0.8515    1.5026    0.0000 C   0  0  0  0  0  0  0  0  0  0  0  0
    1.7029    0.0000    0.0000 C   0  0  0  0  0  0  0  0  0  0  0  0
    5.1589    3.0052    0.0000 O   0  0  0  0  0  0  0  0  0  0  0  0
    6.0604    1.5026    0.0000 C   0  0  0  0  0  0  0  0  0  0  0  0
    5.2089    0.0000    0.0000 C   0  0  0  0  0  0  0  0  0  0  0  0
    0.8515    0.5009    0.0000 C   0  0  0  0  0  0  0  0  0  0  0  0
    6.0604    0.5509    0.0000 C   0  0  0  0  0  0  0  0  0  0  0  0
    0.0000    0.0000    0.0000 O   0  0  0  0  0  0  0  0  0  0  0  0
    6.9119    0.0501    0.0000 O   0  0  0  0  0  0  0  0  0  0  0  0
  1  2  2  0  0  0  0 
  2  3  1  0  0  0  0 
  2  4  1  0  0  0  0 
  5  3  2  0  0  0  0 
  3  6  1  0  0  0  0 
  4  7  2  0  0  0  0 
  8  4  1  0  0  0  0 
  5  9  1  0  0  0  0 
 10  5  1  0  0  0  0 
  6 11  2  0  0  0  0 
  7 12  1  0  0  0  0 
  7 13  1  0  0  0  0 
 14  8  2  0  0  0  0 
 15 10  2  0  0  0  0 
 11 15  1  0  0  0  0 
 13 16  2  0  0  0  0 
 16 14  1  0  0  0  0 
 15 17  1  0  0  0  0 
 16 18  1  0  0  0  0 
M  END
> <Name>
Benzophenone, 2,2',4,4'-tetrahydroxy-

> <Source>
NIST2DMolFile

> <Tox>
2.305

> <CAS>
131-55-5

$$$$

  CDK

 16 17  0  0  0  0  0  0  0  0999 V2000
    4.9479   -4.0566    0.0000 O   0  0  0  0  0  0  0  0  0  0  0  0
    3.9584   -3.1652    0.0000 C   0  0  0  0  0  0  0  0  0  0  0  0
    4.1019   -1.8432    0.0000 N   0  0  0  0  0  0  0  0  0  0  0  0
    2.6590   -3.4447    0.0000 C   0  0  0  0  0  0  0  0  0  0  0  0
    2.8857   -1.2993    0.0000 C   0  0  0  0  0  0  0  0  0  0  0  0
    5.2501   -1.1784    0.0000 S   0  0  0  0  0  0  0  0  0  0  0  0
    1.9943   -2.2889    0.0000 C   0  0  0  0  0  0  0  0  0  0  0  0
    1.9943   -4.5929    0.0000 C   0  0  0  0  0  0  0  0  0  0  0  0
    2.6062   -0.0000    0.0000 O   0  0  0  0  0  0  0  0  0  0  0  0
    6.4059   -1.8432    0.0000 C   0  0  0  0  0  0  0  0  0  0  0  0
    0.6648   -2.2889    0.0000 C   0  0  0  0  0  0  0  0  0  0  0  0
    0.6648   -4.5929    0.0000 C   0  0  0  0  0  0  0  0  0  0  0  0
    7.0707   -0.6874    0.0000 Cl  0  0  0  0  0  0  0  0  0  0  0  0
    7.5541   -2.5080    0.0000 Cl  0  0  0  0  0  0  0  0  0  0  0  0
    5.7411   -2.9914    0.0000 Cl  0  0  0  0  0  0  0  0  0  0  0  0
    0.0000   -3.4447    0.0000 C   0  0  0  0  0  0  0  0  0  0  0  0
  1  2  2  0  0  0  0 
  2  3  1  0  0  0  0 
  2  4  1  0  0  0  0 
  3  5  1  0  0  0  0 
  3  6  1  0  0  0  0 
  7  4  2  0  0  0  0 
  4  8  1  0  0  0  0 
  5  9  2  0  0  0  0 
  5  7  1  0  0  0  0 
  6 10  1  0  0  0  0 
  7 11  1  0  0  0  0 
  8 12  2  0  0  0  0 
 10 13  1  0  0  0  0 
 10 14  1  0  0  0  0 
 10 15  1  0  0  0  0 
 16 11  2  0  0  0  0 
 12 16  1  0  0  0  0 
M  END
> <Name>
1H-Isoindole-1,3(2H)-dione, 2-((trichloromethyl)thio)-

> <Source>
DSSTox2DMolFile

> <Tox>
2.051

> <CAS>
133-07-3

$$$$

  CDK

 14 15  0  0  0  0  0  0  0  0999 V2000
    7.2333    2.8000    0.0000 N   0  0  0  0  0  0  0  0  0  0  0  0
    6.0200    2.1000    0.0000 C   0  0  0  0  0  0  0  0  0  0  0  0
    6.0200    0.7000    0.0000 C   0  0  0  0  0  0  0  0  0  0  0  0
    4.8067    2.8000    0.0000 C   0  0  0  0  0  0  0  0  0  0  0  0
    4.8067    0.0000    0.0000 C   0  0  0  0  0  0  0  0  0  0  0  0
    3.5933    2.1000    0.0000 C   0  0  0  0  0  0  0  0  0  0  0  0
    3.5933    0.7000    0.0000 C   0  0  0  0  0  0  0  0  0  0  0  0
    2.3800    2.8000    0.0000 N   0  0  0  0  0  0  0  0  0  0  0  0
    1.1667    2.1000    0.0000 C   0  0  0  0  0  0  0  0  0  0  0  0
    2.3800    4.2000    0.0000 C   0  0  0  0  0  0  0  0  0  0  0  0
    0.0000    2.8000    0.0000 C   0  0  0  0  0  0  0  0  0  0  0  0
    1.1667    4.8533    0.0000 C   0  0  0  0  0  0  0  0  0  0  0  0
    3.5933    4.8533    0.0000 O   0  0  0  0  0  0  0  0  0  0  0  0
    0.0000    4.2000    0.0000 C   0  0  0  0  0  0  0  0  0  0  0  0
  1  2  1  0  0  0  0 
  2  3  1  0  0  0  0 
  2  4  2  0  0  0  0 
  3  5  2  0  0  0  0 
  6  4  1  0  0  0  0 
  5  7  1  0  0  0  0 
  7  6  2  0  0  0  0 
  6  8  1  0  0  0  0 
  8  9  1  0  0  0  0 
  8 10  1  0  0  0  0 
  9 11  2  0  0  0  0 
 12 10  1  0  0  0  0 
 10 13  2  0  0  0  0 
 11 14  1  0  0  0  0 
 14 12  2  0  0  0  0 
M  END
> <Name>
2(1H)-Pyridone, 1-(m-aminophenyl)-

> <Source>
IndexNet2DMolFile

> <Tox>
1.908

> <CAS>
134-37-2

$$$$

  CDK

 17 19  0  0  0  0  0  0  0  0999 V2000
    5.7546   -2.6609    0.0000 C   0  0  0  0  0  0  0  0  0  0  0  0
    6.9055   -1.9980    0.0000 C   0  0  0  0  0  0  0  0  0  0  0  0
    4.6037   -1.9980    0.0000 C   0  0  0  0  0  0  0  0  0  0  0  0
    6.9055   -0.6629    0.0000 C   0  0  0  0  0  0  0  0  0  0  0  0
    8.0564   -2.6609    0.0000 C   0  0  0  0  0  0  0  0  0  0  0  0
    4.6037   -0.6629    0.0000 C   0  0  0  0  0  0  0  0  0  0  0  0
    3.4528   -2.6609    0.0000 N   0  0  0  0  0  0  0  0  0  0  0  0
    5.7546   -0.0000    0.0000 C   0  0  0  0  0  0  0  0  0  0  0  0
    8.0564   -0.0000    0.0000 C   0  0  0  0  0  0  0  0  0  0  0  0
    9.2074   -1.9980    0.0000 C   0  0  0  0  0  0  0  0  0  0  0  0
    2.3018   -1.9980    0.0000 C   0  0  0  0  0  0  0  0  0  0  0  0
    9.2074   -0.6629    0.0000 C   0  0  0  0  0  0  0  0  0  0  0  0
    1.1509   -2.6609    0.0000 C   0  0  0  0  0  0  0  0  0  0  0  0
    2.3018   -0.6629    0.0000 C   0  0  0  0  0  0  0  0  0  0  0  0
    0.0000   -1.9980    0.0000 C   0  0  0  0  0  0  0  0  0  0  0  0
    1.1509   -0.0000    0.0000 C   0  0  0  0  0  0  0  0  0  0  0  0
    0.0000   -0.6629    0.0000 C   0  0  0  0  0  0  0  0  0  0  0  0
  1  2  2  0  0  0  0 
  1  3  1  0  0  0  0 
  2  4  1  0  0  0  0 
  2  5  1  0  0  0  0 
  6  3  2  0  0  0  0 
  3  7  1  0  0  0  0 
  4  8  2  0  0  0  0 
  4  9  1  0  0  0  0 
 10  5  2  0  0  0  0 
  8  6  1  0  0  0  0 
  7 11  1  0  0  0  0 
  9 12  2  0  0  0  0 
 12 10  1  0  0  0  0 
 11 13  2  0  0  0  0 
 11 14  1  0  0  0  0 
 13 15  1  0  0  0  0 
 16 14  2  0  0  0  0 
 15 17  2  0  0  0  0 
 17 16  1  0  0  0  0 
M  END
> <Name>
2-Naphthalenamine, N-phenyl-

> <Source>
DSSTox2DMolFile

> <Tox>
1.400

> <CAS>
135-88-6

$$$$

  CDK

 14 14  0  0  0  0  0  0  0  0999 V2000
    7.9795   -4.6042    0.0000 O   0  0  0  0  0  0  0  0  0  0  0  0
    7.3172   -3.4551    0.0000 C   0  0  0  0  0  0  0  0  0  0  0  0
    5.9846   -3.4551    0.0000 C   0  0  0  0  0  0  0  0  0  0  0  0
    7.9795   -2.2981    0.0000 C   0  0  0  0  0  0  0  0  0  0  0  0
    5.3223   -2.2981    0.0000 C   0  0  0  0  0  0  0  0  0  0  0  0
    5.3223   -4.6042    0.0000 C   0  0  0  0  0  0  0  0  0  0  0  0
    7.3172   -1.1491    0.0000 C   0  0  0  0  0  0  0  0  0  0  0  0
    5.9846   -1.1491    0.0000 C   0  0  0  0  0  0  0  0  0  0  0  0
    3.9898   -4.6042    0.0000 C   0  0  0  0  0  0  0  0  0  0  0  0
    7.9795   -0.0000    0.0000 O   0  0  0  0  0  0  0  0  0  0  0  0
    3.3275   -3.4551    0.0000 C   0  0  0  0  0  0  0  0  0  0  0  0
    1.9949   -3.4551    0.0000 C   0  0  0  0  0  0  0  0  0  0  0  0
    1.3326   -2.2981    0.0000 C   0  0  0  0  0  0  0  0  0  0  0  0
    0.0000   -2.2981    0.0000 C   0  0  0  0  0  0  0  0  0  0  0  0
  1  2  1  0  0  0  0 
  2  3  2  0  0  0  0 
  2  4  1  0  0  0  0 
  3  5  1  0  0  0  0 
  3  6  1  0  0  0  0 
  7  4  2  0  0  0  0 
  5  8  2  0  0  0  0 
  6  9  1  0  0  0  0 
  8  7  1  0  0  0  0 
  7 10  1  0  0  0  0 
  9 11  1  0  0  0  0 
 11 12  1  0  0  0  0 
 12 13  1  0  0  0  0 
 13 14  1  0  0  0  0 
M  END
> <Name>
1,3-Benzenediol, 4-hexyl-

> <Source>
DSSTox2DMolFile

> <Tox>
2.548

> <CAS>
136-77-6

$$$$

  CDK

 17 17  0  0  0  0  0  0  0  0999 V2000
    0.0000    1.4993    0.0000 C   0  0  0  0  0  0  0  0  0  0  0  0
    0.8996    1.9991    0.0000 C   0  0  0  0  0  0  0  0  0  0  0  0
    0.0000    0.4998    0.0000 C   0  0  0  0  0  0  0  0  0  0  0  0
    1.7492    1.4993    0.0000 C   0  0  0  0  0  0  0  0  0  0  0  0
    0.8996    2.9987    0.0000 C   0  0  0  0  0  0  0  0  0  0  0  0
    0.8996    0.0000    0.0000 C   0  0  0  0  0  0  0  0  0  0  0  0
    1.7492    0.4998    0.0000 C   0  0  0  0  0  0  0  0  0  0  0  0
    2.5989    1.9991    0.0000 N   0  0  0  0  0  0  0  0  0  0  0  0
    2.5989    0.0000    0.0000 C   0  0  0  0  0  0  0  0  0  0  0  0
    3.4985    1.4993    0.0000 C   0  0  0  0  0  0  0  0  0  0  0  0
    4.3481    1.9991    0.0000 C   0  0  0  0  0  0  0  0  0  0  0  0
    3.4985    0.4998    0.0000 O   0  0  0  0  0  0  0  0  0  0  0  0
    5.1977    1.4993    0.0000 N   0  0  0  0  0  0  0  0  0  0  0  0
    6.0473    1.9991    0.0000 C   0  0  0  0  0  0  0  0  0  0  0  0
    5.1977    0.4998    0.0000 C   0  0  0  0  0  0  0  0  0  0  0  0
    6.9469    1.4993    0.0000 C   0  0  0  0  0  0  0  0  0  0  0  0
    6.0473    0.0000    0.0000 C   0  0  0  0  0  0  0  0  0  0  0  0
  1  2  2  0  0  0  0 
  3  1  1  0  0  0  0 
  2  4  1  0  0  0  0 
  2  5  1  0  0  0  0 
  6  3  2  0  0  0  0 
  4  7  2  0  0  0  0 
  4  8  1  0  0  0  0 
  7  6  1  0  0  0  0 
  7  9  1  0  0  0  0 
  8 10  1  0  0  0  0 
 10 11  1  0  0  0  0 
 10 12  2  0  0  0  0 
 11 13  1  0  0  0  0 
 13 14  1  0  0  0  0 
 13 15  1  0  0  0  0 
 14 16  1  0  0  0  0 
 17 15  1  0  0  0  0 
M  END
> <Name>
Acetamide, 2-(diethylamino)-N-(2,6-dimethylphenyl)-

> <Source>
NIST2DMolFile

> <Tox>
2.869

> <CAS>
137-58-6

$$$$

  CDK

 15 15  0  0  0  0  0  0  0  0999 V2000
    1.9946   -0.0000    0.0000 Cl  0  0  0  0  0  0  0  0  0  0  0  0
    2.6568   -1.1568    0.0000 C   0  0  0  0  0  0  0  0  0  0  0  0
    3.9891   -1.1568    0.0000 N   0  0  0  0  0  0  0  0  0  0  0  0
    1.9946   -2.3057    0.0000 N   0  0  0  0  0  0  0  0  0  0  0  0
    4.6513   -2.3057    0.0000 C   0  0  0  0  0  0  0  0  0  0  0  0
    2.6568   -3.4546    0.0000 C   0  0  0  0  0  0  0  0  0  0  0  0
    3.9891   -3.4546    0.0000 N   0  0  0  0  0  0  0  0  0  0  0  0
    5.9837   -2.3057    0.0000 N   0  0  0  0  0  0  0  0  0  0  0  0
    1.9946   -4.6114    0.0000 N   0  0  0  0  0  0  0  0  0  0  0  0
    6.6459   -3.4546    0.0000 C   0  0  0  0  0  0  0  0  0  0  0  0
    0.6622   -4.6114    0.0000 C   0  0  0  0  0  0  0  0  0  0  0  0
    7.9783   -3.4546    0.0000 C   0  0  0  0  0  0  0  0  0  0  0  0
    5.9837   -4.6114    0.0000 C   0  0  0  0  0  0  0  0  0  0  0  0
    0.0000   -5.7603    0.0000 C   0  0  0  0  0  0  0  0  0  0  0  0
    0.0000   -3.4546    0.0000 C   0  0  0  0  0  0  0  0  0  0  0  0
  1  2  1  0  0  0  0 
  2  3  2  0  0  0  0 
  2  4  1  0  0  0  0 
  3  5  1  0  0  0  0 
  6  4  2  0  0  0  0 
  5  7  2  0  0  0  0 
  5  8  1  0  0  0  0 
  7  6  1  0  0  0  0 
  6  9  1  0  0  0  0 
  8 10  1  0  0  0  0 
  9 11  1  0  0  0  0 
 10 12  1  0  0  0  0 
 10 13  1  0  0  0  0 
 11 14  1  0  0  0  0 
 11 15  1  0  0  0  0 
M  END
> <Name>
1,3,5-Triazine-2,4-diamine, 6-chloro-N,N'-bis(1-methylethyl)-

> <Source>
DSSTox2DMolFile

> <Tox>
1.777

> <CAS>
139-40-2

$$$$

  CDK

 18 17  0  0  0  0  0  0  0  0999 V2000
    3.5618    3.4113    0.0000 C   0  0  0  0  0  0  0  0  0  0  0  0
    3.0601    2.6086    0.0000 O   0  0  0  0  0  0  0  0  0  0  0  0
    4.5149    3.4113    0.0000 C   0  0  0  0  0  0  0  0  0  0  0  0
    3.0601    4.3142    0.0000 C   0  0  0  0  0  0  0  0  0  0  0  0
    3.5618    1.7558    0.0000 C   0  0  0  0  0  0  0  0  0  0  0  0
    5.0165    4.3142    0.0000 O   0  0  0  0  0  0  0  0  0  0  0  0
    2.0568    4.3142    0.0000 O   0  0  0  0  0  0  0  0  0  0  0  0
    3.0601    0.8528    0.0000 C   0  0  0  0  0  0  0  0  0  0  0  0
    4.5149    1.7558    0.0000 O   0  0  0  0  0  0  0  0  0  0  0  0
    6.0199    4.3142    0.0000 C   0  0  0  0  0  0  0  0  0  0  0  0
    1.5551    5.1670    0.0000 C   0  0  0  0  0  0  0  0  0  0  0  0
    3.5618    0.0000    0.0000 C   0  0  0  0  0  0  0  0  0  0  0  0
    6.5215    5.1670    0.0000 C   0  0  0  0  0  0  0  0  0  0  0  0
    6.4713    3.4113    0.0000 O   0  0  0  0  0  0  0  0  0  0  0  0
    0.5518    5.1670    0.0000 C   0  0  0  0  0  0  0  0  0  0  0  0
    2.0066    6.0700    0.0000 O   0  0  0  0  0  0  0  0  0  0  0  0
    7.5248    5.1670    0.0000 C   0  0  0  0  0  0  0  0  0  0  0  0
    0.0000    6.0700    0.0000 C   0  0  0  0  0  0  0  0  0  0  0  0
  1  2  1  0  0  0  0 
  1  3  1  0  0  0  0 
  1  4  1  0  0  0  0 
  2  5  1  0  0  0  0 
  3  6  1  0  0  0  0 
  4  7  1  0  0  0  0 
  5  8  1  0  0  0  0 
  5  9  2  0  0  0  0 
 10  6  1  0  0  0  0 
 11  7  1  0  0  0  0 
  8 12  1  0  0  0  0 
 13 10  1  0  0  0  0 
 10 14  2  0  0  0  0 
 15 11  1  0  0  0  0 
 11 16  2  0  0  0  0 
 17 13  1  0  0  0  0 
 18 15  1  0  0  0  0 
M  END
> <Name>
1,2,3-Propanetriol, tripropanoate

> <Source>
NIST2DMolFile

> <Tox>
1.609

> <CAS>
139-45-7

$$$$

  CDK

  9  8  0  0  0  0  0  0  0  0999 V2000
    1.5550    2.6084    0.0000 C   0  0  0  0  0  0  0  0  0  0  0  0
    1.0534    3.4612    0.0000 C   0  0  0  0  0  0  0  0  0  0  0  0
    2.5081    2.6084    0.0000 N   0  0  0  0  0  0  0  0  0  0  0  0
    0.0000    3.4612    0.0000 O   0  0  0  0  0  0  0  0  0  0  0  0
    3.0097    3.4612    0.0000 C   0  0  0  0  0  0  0  0  0  0  0  0
    3.0097    1.7557    0.0000 C   0  0  0  0  0  0  0  0  0  0  0  0
    4.0130    3.4612    0.0000 C   0  0  0  0  0  0  0  0  0  0  0  0
    2.5081    0.8528    0.0000 C   0  0  0  0  0  0  0  0  0  0  0  0
    3.0097    0.0000    0.0000 O   0  0  0  0  0  0  0  0  0  0  0  0
  1  2  1  0  0  0  0 
  1  3  1  0  0  0  0 
  2  4  1  0  0  0  0 
  3  5  1  0  0  0  0 
  3  6  1  0  0  0  0 
  7  5  1  0  0  0  0 
  8  6  1  0  0  0  0 
  8  9  1  0  0  0  0 
M  END
> <Name>
Ethanol, 2,2'-(ethylimino)bis-

> <Source>
NIST2DMolFile

> <Tox>
1.465

> <CAS>
139-87-7

$$$$

  CDK

 13 12  0  0  0  0  0  0  0  0999 V2000
    0.0000   -3.4536    0.0000 Cl  0  0  0  0  0  0  0  0  0  0  0  0
    1.3320   -3.4536    0.0000 C   0  0  0  0  0  0  0  0  0  0  0  0
    1.9940   -2.3051    0.0000 C   0  0  0  0  0  0  0  0  0  0  0  0
    3.3260   -2.3051    0.0000 O   0  0  0  0  0  0  0  0  0  0  0  0
    3.9880   -1.1486    0.0000 P   0  0  0  0  0  0  0  0  0  0  0  0
    3.3260   -0.0000    0.0000 O   0  0  0  0  0  0  0  0  0  0  0  0
    5.3201   -1.1486    0.0000 O   0  0  0  0  0  0  0  0  0  0  0  0
    1.9940   -0.0000    0.0000 C   0  0  0  0  0  0  0  0  0  0  0  0
    5.9821   -2.3051    0.0000 C   0  0  0  0  0  0  0  0  0  0  0  0
    1.3320   -1.1486    0.0000 C   0  0  0  0  0  0  0  0  0  0  0  0
    7.3141   -2.3051    0.0000 C   0  0  0  0  0  0  0  0  0  0  0  0
    0.0000   -1.1486    0.0000 Cl  0  0  0  0  0  0  0  0  0  0  0  0
    7.9761   -3.4536    0.0000 Cl  0  0  0  0  0  0  0  0  0  0  0  0
  1  2  1  0  0  0  0 
  2  3  1  0  0  0  0 
  3  4  1  0  0  0  0 
  4  5  1  0  0  0  0 
  5  6  1  0  0  0  0 
  5  7  1  0  0  0  0 
  6  8  1  0  0  0  0 
  7  9  1  0  0  0  0 
  8 10  1  0  0  0  0 
  9 11  1  0  0  0  0 
 10 12  1  0  0  0  0 
 11 13  1  0  0  0  0 
M  END
> <Name>
Ethanol, 2-chloro-, phosphite (3:1)

> <Source>
DSSTox2DMolFile

> <Tox>
3.431

> <CAS>
140-08-9

$$$$

  CDK

  9  9  0  0  0  0  0  0  0  0999 V2000
    0.0000   -0.0000    0.0000 N   0  0  0  0  0  0  0  0  0  0  0  0
    1.3283   -0.0000    0.0000 C   0  0  0  0  0  0  0  0  0  0  0  0
    1.9925   -1.1548    0.0000 C   0  0  0  0  0  0  0  0  0  0  0  0
    3.3269   -1.1548    0.0000 N   0  0  0  0  0  0  0  0  0  0  0  0
    3.9910   -0.0000    0.0000 C   0  0  0  0  0  0  0  0  0  0  0  0
    3.9910   -2.3037    0.0000 C   0  0  0  0  0  0  0  0  0  0  0  0
    5.3194   -0.0000    0.0000 C   0  0  0  0  0  0  0  0  0  0  0  0
    5.3194   -2.3037    0.0000 C   0  0  0  0  0  0  0  0  0  0  0  0
    5.9836   -1.1548    0.0000 N   0  0  0  0  0  0  0  0  0  0  0  0
  1  2  1  0  0  0  0 
  2  3  1  0  0  0  0 
  3  4  1  0  0  0  0 
  4  5  1  0  0  0  0 
  4  6  1  0  0  0  0 
  5  7  1  0  0  0  0 
  8  6  1  0  0  0  0 
  7  9  1  0  0  0  0 
  9  8  1  0  0  0  0 
M  END
> <Name>
Piperazine, 1-(2-aminoethyl)-

> <Source>
DSSTox2DMolFile

> <Tox>
1.787

> <CAS>
140-31-8

$$$$

  CDK

 10 10  0  0  0  0  0  0  0  0999 V2000
    2.4821    2.5834    0.0000 C   0  0  0  0  0  0  0  0  0  0  0  0
    1.9755    1.6716    0.0000 C   0  0  0  0  0  0  0  0  0  0  0  0
    3.4952    2.5834    0.0000 C   0  0  0  0  0  0  0  0  0  0  0  0
    2.4821    0.8611    0.0000 C   0  0  0  0  0  0  0  0  0  0  0  0
    1.0131    1.7223    0.0000 C   0  0  0  0  0  0  0  0  0  0  0  0
    4.0017    1.6716    0.0000 C   0  0  0  0  0  0  0  0  0  0  0  0
    3.4952    0.8611    0.0000 C   0  0  0  0  0  0  0  0  0  0  0  0
    0.5065    0.8611    0.0000 C   0  0  0  0  0  0  0  0  0  0  0  0
    5.0148    1.7223    0.0000 Cl  0  0  0  0  0  0  0  0  0  0  0  0
    0.0000    0.0000    0.0000 N   0  0  0  0  0  0  0  0  0  0  0  0
  1  2  2  0  0  0  0 
  3  1  1  0  0  0  0 
  2  4  1  0  0  0  0 
  2  5  1  0  0  0  0 
  6  3  2  0  0  0  0 
  4  7  2  0  0  0  0 
  5  8  1  0  0  0  0 
  6  9  1  0  0  0  0 
  7  6  1  0  0  0  0 
  8 10  3  0  0  0  0 
M  END
> <Name>
Acetonitrile, (p-chlorophenyl)-

> <Source>
NIST2DMolFile

> <Tox>
3.482

> <CAS>
140-53-4

$$$$

  CDK

 11 11  0  0  0  0  0  0  0  0999 V2000
    0.0000   -0.0000    0.0000 C   0  0  0  0  0  0  0  0  0  0  0  0
    1.3316   -0.0000    0.0000 C   0  0  0  0  0  0  0  0  0  0  0  0
    1.9934   -1.1561    0.0000 C   0  0  0  0  0  0  0  0  0  0  0  0
    3.3249   -1.1561    0.0000 C   0  0  0  0  0  0  0  0  0  0  0  0
    3.9867   -0.0000    0.0000 C   0  0  0  0  0  0  0  0  0  0  0  0
    3.9867   -2.3043    0.0000 C   0  0  0  0  0  0  0  0  0  0  0  0
    5.3183   -0.0000    0.0000 C   0  0  0  0  0  0  0  0  0  0  0  0
    5.3183   -2.3043    0.0000 C   0  0  0  0  0  0  0  0  0  0  0  0
    5.9801   -1.1561    0.0000 C   0  0  0  0  0  0  0  0  0  0  0  0
    7.3116   -1.1561    0.0000 O   0  0  0  0  0  0  0  0  0  0  0  0
    7.9734   -2.3043    0.0000 C   0  0  0  0  0  0  0  0  0  0  0  0
  1  2  2  0  0  0  0 
  2  3  1  0  0  0  0 
  3  4  1  0  0  0  0 
  4  5  2  0  0  0  0 
  4  6  1  0  0  0  0 
  5  7  1  0  0  0  0 
  8  6  2  0  0  0  0 
  7  9  2  0  0  0  0 
  9  8  1  0  0  0  0 
  9 10  1  0  0  0  0 
 10 11  1  0  0  0  0 
M  END
> <Name>
Benzene, 1-methoxy-4-(2-propenyl)-

> <Source>
DSSTox2DMolFile

> <Tox>
2.081

> <CAS>
140-67-0

$$$$

  CDK

  9  9  0  0  0  0  0  0  0  0999 V2000
   -1.7428    0.0901   -0.0013 C   0  0  0  0  0  0  0  0  0  0  0  0
   -1.2195   -1.2075   -0.0011 C   0  0  0  0  0  0  0  0  0  0  0  0
   -0.9165    1.1750   -0.0016 N   0  0  0  0  0  0  0  0  0  0  0  0
   -3.2113    0.3376    0.0021 C   0  0  0  0  0  0  0  0  0  0  0  0
    0.1586   -1.3928   -0.0003 C   0  0  0  0  0  0  0  0  0  0  0  0
    0.4178    0.9977   -0.0007 C   0  0  0  0  0  0  0  0  0  0  0  0
    1.0018   -0.2792    0.0001 C   0  0  0  0  0  0  0  0  0  0  0  0
    2.4510   -0.4430    0.0009 C   0  0  0  0  0  0  0  0  0  0  0  0
    3.2934    0.5886    0.0008 C   0  0  0  0  0  0  0  0  0  0  0  0
  1  2  1  0  0  0  0 
  1  3  2  0  0  0  0 
  1  4  1  0  0  0  0 
  2  5  2  0  0  0  0 
  6  3  1  0  0  0  0 
  5  7  1  0  0  0  0 
  7  6  2  0  0  0  0 
  7  8  1  0  0  0  0 
  8  9  2  0  0  0  0 
M  END
> <Name>
Pyridine, 5-ethenyl-2-methyl-

> <Source>
DougDB3DMolFile

> <Tox>
1.992

> <CAS>
140-76-1

$$$$

  CDK

 24 23  0  0  0  0  0  0  0  0999 V2000
   -1.7957    0.9906   -0.4457 C   0  0  0  0  0  0  0  0  0  0  0  0
   -0.4796    0.3674   -0.1513 C   0  0  0  0  0  0  0  0  0  0  0  0
   -2.0613    1.8070   -1.3083 O   0  0  0  0  0  0  0  0  0  0  0  0
   -2.7730    0.5467    0.3933 O   0  0  0  0  0  0  0  0  0  0  0  0
    0.6034    0.6680   -0.8732 C   0  0  0  0  0  0  0  0  0  0  0  0
   -4.0973    1.0569    0.2213 C   0  0  0  0  0  0  0  0  0  0  0  0
    1.9194    0.0433   -0.5783 C   0  0  0  0  0  0  0  0  0  0  0  0
   -4.9875    0.3331    1.2449 C   0  0  0  0  0  0  0  0  0  0  0  0
    2.1775   -0.7712    0.2877 O   0  0  0  0  0  0  0  0  0  0  0  0
    2.8931    0.4757   -1.4330 O   0  0  0  0  0  0  0  0  0  0  0  0
   -5.4302   -1.0331    0.7121 C   0  0  0  0  0  0  0  0  0  0  0  0
   -6.1939    1.2130    1.5884 C   0  0  0  0  0  0  0  0  0  0  0  0
    4.2236   -0.0023   -1.2927 C   0  0  0  0  0  0  0  0  0  0  0  0
   -6.2450   -0.9227   -0.5678 C   0  0  0  0  0  0  0  0  0  0  0  0
   -6.7928    0.8646    2.9325 C   0  0  0  0  0  0  0  0  0  0  0  0
    5.0298    0.7457   -0.2207 C   0  0  0  0  0  0  0  0  0  0  0  0
   -6.6887   -2.2832   -1.0733 C   0  0  0  0  0  0  0  0  0  0  0  0
    6.3418   -0.0013    0.0314 C   0  0  0  0  0  0  0  0  0  0  0  0
    5.3142    2.1872   -0.6451 C   0  0  0  0  0  0  0  0  0  0  0  0
   -7.4975   -2.1632   -2.3451 C   0  0  0  0  0  0  0  0  0  0  0  0
    6.1062   -1.3484    0.6941 C   0  0  0  0  0  0  0  0  0  0  0  0
    5.9562    2.9782    0.4735 C   0  0  0  0  0  0  0  0  0  0  0  0
    7.3965   -2.1398    0.8240 C   0  0  0  0  0  0  0  0  0  0  0  0
    7.1603   -3.4746    1.4939 C   0  0  0  0  0  0  0  0  0  0  0  0
  1  2  1  0  0  0  0 
  1  3  2  0  0  0  0 
  1  4  1  0  0  0  0 
  2  5  2  0  0  0  0 
  4  6  1  0  0  0  0 
  5  7  1  0  0  0  0 
  6  8  1  0  0  0  0 
  7  9  2  0  0  0  0 
  7 10  1  0  0  0  0 
  8 11  1  0  0  0  0 
  8 12  1  0  0  0  0 
 10 13  1  0  0  0  0 
 11 14  1  0  0  0  0 
 12 15  1  0  0  0  0 
 13 16  1  0  0  0  0 
 14 17  1  0  0  0  0 
 16 18  1  0  0  0  0 
 16 19  1  0  0  0  0 
 17 20  1  0  0  0  0 
 18 21  1  0  0  0  0 
 19 22  1  0  0  0  0 
 21 23  1  0  0  0  0 
 23 24  1  0  0  0  0 
M  END
> <Name>
2-Butenedioic acid (2E)-, bis(2-ethylhexyl) ester

> <Source>
DougDB3DMolFile

> <Tox>
1.067

> <CAS>
141-02-6

$$$$

  CDK

  9  8  0  0  0  0  0  0  0  0999 V2000
    1.1530   -0.0000    0.0000 O   0  0  0  0  0  0  0  0  0  0  0  0
    1.1530   -1.3257    0.0000 C   0  0  0  0  0  0  0  0  0  0  0  0
    2.2992   -1.9954    0.0000 O   0  0  0  0  0  0  0  0  0  0  0  0
    0.0000   -1.9954    0.0000 C   0  0  0  0  0  0  0  0  0  0  0  0
    3.4522   -1.3257    0.0000 C   0  0  0  0  0  0  0  0  0  0  0  0
    0.0000   -3.3210    0.0000 C   0  0  0  0  0  0  0  0  0  0  0  0
    4.6053   -1.9954    0.0000 C   0  0  0  0  0  0  0  0  0  0  0  0
    5.7514   -1.3257    0.0000 C   0  0  0  0  0  0  0  0  0  0  0  0
    6.9045   -1.9954    0.0000 C   0  0  0  0  0  0  0  0  0  0  0  0
  1  2  2  0  0  0  0 
  2  3  1  0  0  0  0 
  2  4  1  0  0  0  0 
  3  5  1  0  0  0  0 
  4  6  2  0  0  0  0 
  5  7  1  0  0  0  0 
  7  8  1  0  0  0  0 
  8  9  1  0  0  0  0 
M  END
> <Name>
Acrylic acid butyl ester (8CI)

> <Source>
DSSTox2DMolFile

> <Tox>
2.154

> <CAS>
141-32-2

$$$$

  CDK

 20 23  0  0  0  0  0  0  0  0999 V2000
    5.1859    3.0099    0.0000 C   0  0  0  0  0  0  0  0  0  0  0  0
    5.1859    2.0121    0.0000 C   0  0  0  0  0  0  0  0  0  0  0  0
    6.0529    3.5073    0.0000 C   0  0  0  0  0  0  0  0  0  0  0  0
    4.3141    3.5189    0.0000 C   0  0  0  0  0  0  0  0  0  0  0  0
    6.0529    1.5116    0.0000 C   0  0  0  0  0  0  0  0  0  0  0  0
    4.3142    1.5124    0.0000 C   0  0  0  0  0  0  0  0  0  0  0  0
    6.9153    3.0063    0.0000 C   0  0  0  0  0  0  0  0  0  0  0  0
    3.4523    3.0200    0.0000 O   0  0  0  0  0  0  0  0  0  0  0  0
    4.3190    4.5219    0.0000 O   0  0  0  0  0  0  0  0  0  0  0  0
    6.9153    2.0084    0.0000 C   0  0  0  0  0  0  0  0  0  0  0  0
    7.7764    2.5110    0.0000 O   0  0  0  0  0  0  0  0  0  0  0  0
    3.4549    2.0146    0.0000 C   0  0  0  0  0  0  0  0  0  0  0  0
    2.5943    1.5182    0.0000 C   0  0  0  0  0  0  0  0  0  0  0  0
    2.5943    0.5153    0.0000 C   0  0  0  0  0  0  0  0  0  0  0  0
    1.7332    2.0172    0.0000 C   0  0  0  0  0  0  0  0  0  0  0  0
    1.7332    0.0163    0.0000 C   0  0  0  0  0  0  0  0  0  0  0  0
    3.4628    0.0000    0.0000 C   0  0  0  0  0  0  0  0  0  0  0  0
    0.8618    1.5182    0.0000 C   0  0  0  0  0  0  0  0  0  0  0  0
    0.8618    0.5153    0.0000 C   0  0  0  0  0  0  0  0  0  0  0  0
    0.0000    1.0193    0.0000 O   0  0  0  0  0  0  0  0  0  0  0  0
  2  1  1  0  0  0  0 
  1  3  1  0  0  0  0 
  4  1  1  0  0  0  0 
  5  2  1  0  0  0  0 
  2  6  1  0  0  0  0 
  3  7  1  0  0  0  0 
  8  4  1  0  0  0  0 
  4  9  2  0  0  0  0 
 10  5  1  0  0  0  0 
  7 11  1  0  0  0  0 
 10  7  1  0  0  0  0 
 12  8  1  0  0  0  0 
 11 10  1  0  0  0  0 
 13 12  1  0  0  0  0 
 13 14  1  0  0  0  0 
 15 13  1  0  0  0  0 
 14 16  1  0  0  0  0 
 14 17  1  0  0  0  0 
 18 15  1  0  0  0  0 
 16 19  1  0  0  0  0 
 20 18  1  0  0  0  0 
 18 19  1  0  0  0  0 
 19 20  1  0  0  0  0 
M  END
> <Name>
7-Oxabicyclo(4.1.0)heptane-3-carboxylic acid, 4-methyl-, (4-methyl-7-oxabicyclo(4.1.0)hept-3-yl)methyl ester

> <Source>
NIST2DMolFile

> <Tox>
1.772

> <CAS>
141-37-7

$$$$

  CDK

 29 29  0  0  0  0  0  0  0  0999 V2000
   12.1925   -6.1846    0.0000 O   0  0  0  0  0  0  0  0  0  0  0  0
   12.8551   -7.3332    0.0000 C   0  0  0  0  0  0  0  0  0  0  0  0
   11.5298   -7.3332    0.0000 C   0  0  0  0  0  0  0  0  0  0  0  0
   14.0258   -7.9958    0.0000 C   0  0  0  0  0  0  0  0  0  0  0  0
   10.3813   -7.9958    0.0000 C   0  0  0  0  0  0  0  0  0  0  0  0
   15.1743   -7.3332    0.0000 C   0  0  0  0  0  0  0  0  0  0  0  0
    9.2327   -7.3332    0.0000 C   0  0  0  0  0  0  0  0  0  0  0  0
   16.3229   -7.9958    0.0000 C   0  0  0  0  0  0  0  0  0  0  0  0
    9.2327   -6.0079    0.0000 C   0  0  0  0  0  0  0  0  0  0  0  0
   17.4715   -7.3332    0.0000 C   0  0  0  0  0  0  0  0  0  0  0  0
    8.0621   -5.3232    0.0000 C   0  0  0  0  0  0  0  0  0  0  0  0
   18.6200   -7.9958    0.0000 C   0  0  0  0  0  0  0  0  0  0  0  0
    8.0621   -3.9979    0.0000 C   0  0  0  0  0  0  0  0  0  0  0  0
   19.7907   -7.3332    0.0000 C   0  0  0  0  0  0  0  0  0  0  0  0
    6.9135   -3.3353    0.0000 C   0  0  0  0  0  0  0  0  0  0  0  0
   20.9393   -7.9958    0.0000 C   0  0  0  0  0  0  0  0  0  0  0  0
    6.9135   -2.0100    0.0000 C   0  0  0  0  0  0  0  0  0  0  0  0
   22.0878   -7.3332    0.0000 C   0  0  0  0  0  0  0  0  0  0  0  0
    5.7649   -1.3474    0.0000 C   0  0  0  0  0  0  0  0  0  0  0  0
    5.7649   -0.0000    0.0000 O   0  0  0  0  0  0  0  0  0  0  0  0
    4.6164   -2.0100    0.0000 O   0  0  0  0  0  0  0  0  0  0  0  0
    3.4678   -1.3474    0.0000 C   0  0  0  0  0  0  0  0  0  0  0  0
    2.2971   -2.0100    0.0000 C   0  0  0  0  0  0  0  0  0  0  0  0
    1.1486   -1.3474    0.0000 C   0  0  0  0  0  0  0  0  0  0  0  0
    2.2971   -3.3353    0.0000 C   0  0  0  0  0  0  0  0  0  0  0  0
    0.0000   -2.0100    0.0000 C   0  0  0  0  0  0  0  0  0  0  0  0
    1.1486   -3.9979    0.0000 C   0  0  0  0  0  0  0  0  0  0  0  0
    1.1486   -5.3232    0.0000 C   0  0  0  0  0  0  0  0  0  0  0  0
    0.0000   -6.0079    0.0000 C   0  0  0  0  0  0  0  0  0  0  0  0
  1  2  1  0  0  0  0 
  1  3  1  0  0  0  0 
  2  4  1  0  0  0  0 
  2  3  1  0  0  0  0 
  3  5  1  0  0  0  0 
  4  6  1  0  0  0  0 
  5  7  1  0  0  0  0 
  6  8  1  0  0  0  0 
  7  9  1  0  0  0  0 
  8 10  1  0  0  0  0 
  9 11  1  0  0  0  0 
 10 12  1  0  0  0  0 
 11 13  1  0  0  0  0 
 12 14  1  0  0  0  0 
 13 15  1  0  0  0  0 
 14 16  1  0  0  0  0 
 15 17  1  0  0  0  0 
 16 18  1  0  0  0  0 
 17 19  1  0  0  0  0 
 19 20  2  0  0  0  0 
 19 21  1  0  0  0  0 
 21 22  1  0  0  0  0 
 22 23  1  0  0  0  0 
 23 24  1  0  0  0  0 
 23 25  1  0  0  0  0 
 24 26  1  0  0  0  0 
 25 27  1  0  0  0  0 
 27 28  1  0  0  0  0 
 28 29  1  0  0  0  0 
M  END
> <Name>
Octadecanoic acid, 9,10-epoxy-, 2-ethylhexyl ester

> <Source>
DSSTox2DMolFile

> <Tox>
1.399

> <CAS>
141-38-8

$$$$

  CDK

  7  7  0  0  0  0  0  0  0  0999 V2000
    4.4520   -2.5243    0.0000 O   0  0  0  0  0  0  0  0  0  0  0  0
    3.3746   -1.7407    0.0000 C   0  0  0  0  0  0  0  0  0  0  0  0
    2.1102   -2.1548    0.0000 N   0  0  0  0  0  0  0  0  0  0  0  0
    3.3746   -0.4140    0.0000 C   0  0  0  0  0  0  0  0  0  0  0  0
    1.3311   -1.0774    0.0000 C   0  0  0  0  0  0  0  0  0  0  0  0
    2.1102   -0.0000    0.0000 S   0  0  0  0  0  0  0  0  0  0  0  0
    0.0000   -1.0774    0.0000 S   0  0  0  0  0  0  0  0  0  0  0  0
  1  2  2  0  0  0  0 
  2  3  1  0  0  0  0 
  2  4  1  0  0  0  0 
  3  5  1  0  0  0  0 
  6  4  1  0  0  0  0 
  5  7  2  0  0  0  0 
  5  6  1  0  0  0  0 
M  END
> <Name>
4-Thiazolidinone, 2-thioxo-

> <Source>
DSSTox2DMolFile

> <Tox>
2.619

> <CAS>
141-84-4

$$$$

  CDK

 24 23  0  0  0  0  0  0  0  0999 V2000
    1.1540   -7.3201    0.0000 C   0  0  0  0  0  0  0  0  0  0  0  0
    0.0000   -7.9763    0.0000 C   0  0  0  0  0  0  0  0  0  0  0  0
    1.1540   -5.9964    0.0000 O   0  0  0  0  0  0  0  0  0  0  0  0
    2.3080   -7.9763    0.0000 O   0  0  0  0  0  0  0  0  0  0  0  0
    0.0000   -9.3114    0.0000 C   0  0  0  0  0  0  0  0  0  0  0  0
    2.3080   -5.3176    0.0000 C   0  0  0  0  0  0  0  0  0  0  0  0
    1.1540   -9.9789    0.0000 C   0  0  0  0  0  0  0  0  0  0  0  0
    2.3080   -3.9938    0.0000 C   0  0  0  0  0  0  0  0  0  0  0  0
    2.3080   -9.3114    0.0000 O   0  0  0  0  0  0  0  0  0  0  0  0
    1.1540  -11.3139    0.0000 O   0  0  0  0  0  0  0  0  0  0  0  0
    1.1540   -3.3376    0.0000 C   0  0  0  0  0  0  0  0  0  0  0  0
    3.4621   -3.3376    0.0000 C   0  0  0  0  0  0  0  0  0  0  0  0
    3.4621   -9.9789    0.0000 C   0  0  0  0  0  0  0  0  0  0  0  0
    1.1540   -2.0026    0.0000 C   0  0  0  0  0  0  0  0  0  0  0  0
    3.4621   -2.0026    0.0000 C   0  0  0  0  0  0  0  0  0  0  0  0
    4.6161   -9.3114    0.0000 C   0  0  0  0  0  0  0  0  0  0  0  0
    0.0000   -1.3350    0.0000 C   0  0  0  0  0  0  0  0  0  0  0  0
    4.6161   -7.9763    0.0000 C   0  0  0  0  0  0  0  0  0  0  0  0
    5.7475   -9.9789    0.0000 C   0  0  0  0  0  0  0  0  0  0  0  0
    0.0000   -0.0000    0.0000 C   0  0  0  0  0  0  0  0  0  0  0  0
    5.7475   -7.3201    0.0000 C   0  0  0  0  0  0  0  0  0  0  0  0
    6.9015   -9.3114    0.0000 C   0  0  0  0  0  0  0  0  0  0  0  0
    5.7475   -5.9964    0.0000 C   0  0  0  0  0  0  0  0  0  0  0  0
    6.9015   -5.3176    0.0000 C   0  0  0  0  0  0  0  0  0  0  0  0
  1  2  1  0  0  0  0 
  1  3  1  0  0  0  0 
  1  4  2  0  0  0  0 
  2  5  2  0  0  0  0 
  3  6  1  0  0  0  0 
  5  7  1  0  0  0  0 
  6  8  1  0  0  0  0 
  7  9  1  0  0  0  0 
  7 10  2  0  0  0  0 
  8 11  1  0  0  0  0 
  8 12  1  0  0  0  0 
  9 13  1  0  0  0  0 
 11 14  1  0  0  0  0 
 12 15  1  0  0  0  0 
 13 16  1  0  0  0  0 
 14 17  1  0  0  0  0 
 16 18  1  0  0  0  0 
 16 19  1  0  0  0  0 
 17 20  1  0  0  0  0 
 18 21  1  0  0  0  0 
 19 22  1  0  0  0  0 
 21 23  1  0  0  0  0 
 23 24  1  0  0  0  0 
M  END
> <Name>
2-Butenedioic acid (2Z)-, bis(2-ethylhexyl) ester

> <Source>
DSSTox2DMolFile

> <Tox>
1.386

> <CAS>
142-16-5

$$$$

  CDK

  7  6  0  0  0  0  0  0  0  0999 V2000
   -1.5573    0.0021   -0.0098 C   0  0  0  0  0  0  0  0  0  0  0  0
   -2.4919   -1.1782    0.0714 C   0  0  0  0  0  0  0  0  0  0  0  0
   -1.9267    1.1602   -0.1536 O   0  0  0  0  0  0  0  0  0  0  0  0
   -0.1793   -0.2666    0.1559 N   0  0  0  0  0  0  0  0  0  0  0  0
    0.8466    0.7632   -0.1135 C   0  0  0  0  0  0  0  0  0  0  0  0
    2.2104    0.3434    0.4408 C   0  0  0  0  0  0  0  0  0  0  0  0
    2.7068   -0.7041   -0.3622 O   0  0  0  0  0  0  0  0  0  0  0  0
  1  2  1  0  0  0  0 
  1  3  2  0  0  0  0 
  1  4  1  0  0  0  0 
  4  5  1  0  0  0  0 
  5  6  1  0  0  0  0 
  6  7  1  0  0  0  0 
M  END
> <Name>
Acetamide, N-(2-hydroxyethyl)-

> <Source>
DougDB3DMolFile

> <Tox>
0.583

> <CAS>
142-26-7

$$$$

  CDK

 10  9  0  0  0  0  0  0  0  0999 V2000
    5.7596   -0.0000    0.0000 C   0  0  0  0  0  0  0  0  0  0  0  0
    6.9132   -0.6695    0.0000 C   0  0  0  0  0  0  0  0  0  0  0  0
    8.0667   -0.0000    0.0000 O   0  0  0  0  0  0  0  0  0  0  0  0
    6.9132   -2.0006    0.0000 O   0  0  0  0  0  0  0  0  0  0  0  0
    5.7596   -2.6620    0.0000 C   0  0  0  0  0  0  0  0  0  0  0  0
    4.6061   -2.0006    0.0000 C   0  0  0  0  0  0  0  0  0  0  0  0
    3.4606   -2.6620    0.0000 C   0  0  0  0  0  0  0  0  0  0  0  0
    2.3071   -2.0006    0.0000 C   0  0  0  0  0  0  0  0  0  0  0  0
    1.1535   -2.6620    0.0000 C   0  0  0  0  0  0  0  0  0  0  0  0
    0.0000   -2.0006    0.0000 C   0  0  0  0  0  0  0  0  0  0  0  0
  1  2  1  0  0  0  0 
  2  3  2  0  0  0  0 
  2  4  1  0  0  0  0 
  4  5  1  0  0  0  0 
  5  6  1  0  0  0  0 
  6  7  1  0  0  0  0 
  7  8  1  0  0  0  0 
  8  9  1  0  0  0  0 
  9 10  1  0  0  0  0 
M  END
> <Name>
Acetic acid, hexyl ester

> <Source>
DSSTox2DMolFile

> <Tox>
0.601

> <CAS>
142-92-7

$$$$

  CDK

 10  9  0  0  0  0  0  0  0  0999 V2000
    0.0000   -0.6638    0.0000 C   0  0  0  0  0  0  0  0  0  0  0  0
    1.1513   -0.0000    0.0000 C   0  0  0  0  0  0  0  0  0  0  0  0
    2.3027   -0.6638    0.0000 C   0  0  0  0  0  0  0  0  0  0  0  0
    3.4540   -0.0000    0.0000 C   0  0  0  0  0  0  0  0  0  0  0  0
    4.6053   -0.6638    0.0000 C   0  0  0  0  0  0  0  0  0  0  0  0
    5.7670   -0.0000    0.0000 C   0  0  0  0  0  0  0  0  0  0  0  0
    6.9184   -0.6638    0.0000 C   0  0  0  0  0  0  0  0  0  0  0  0
    8.0697   -0.0000    0.0000 C   0  0  0  0  0  0  0  0  0  0  0  0
    9.2210   -0.6638    0.0000 C   0  0  0  0  0  0  0  0  0  0  0  0
   10.3724   -0.0000    0.0000 O   0  0  0  0  0  0  0  0  0  0  0  0
  1  2  1  0  0  0  0 
  2  3  1  0  0  0  0 
  3  4  1  0  0  0  0 
  4  5  1  0  0  0  0 
  5  6  1  0  0  0  0 
  6  7  1  0  0  0  0 
  7  8  1  0  0  0  0 
  8  9  1  0  0  0  0 
  9 10  1  0  0  0  0 
M  END
> <Name>
Nonyl alcohol

> <Source>
DSSTox2DMolFile

> <Tox>
1.608

> <CAS>
143-08-8

$$$$

  CDK

 15 14  0  0  0  0  0  0  0  0999 V2000
   -5.0685    0.4880    0.8413 C   0  0  0  0  0  0  0  0  0  0  0  0
   -3.9562   -0.5460    1.0481 C   0  0  0  0  0  0  0  0  0  0  0  0
   -6.0491   -0.1034   -0.0022 O   0  0  0  0  0  0  0  0  0  0  0  0
   -3.0033   -0.3526    0.0148 O   0  0  0  0  0  0  0  0  0  0  0  0
   -7.0702    0.7796   -0.3820 C   0  0  0  0  0  0  0  0  0  0  0  0
   -1.9866   -1.3424   -0.0006 C   0  0  0  0  0  0  0  0  0  0  0  0
   -0.9420   -0.9078   -1.0352 C   0  0  0  0  0  0  0  0  0  0  0  0
   -0.0018   -0.0828   -0.3651 O   0  0  0  0  0  0  0  0  0  0  0  0
    0.9387    0.5180   -1.2415 C   0  0  0  0  0  0  0  0  0  0  0  0
    1.9700    1.2478   -0.3730 C   0  0  0  0  0  0  0  0  0  0  0  0
    3.0006    0.3202   -0.0709 O   0  0  0  0  0  0  0  0  0  0  0  0
    3.9469    0.8206    0.8604 C   0  0  0  0  0  0  0  0  0  0  0  0
    5.0862   -0.2009    0.9469 C   0  0  0  0  0  0  0  0  0  0  0  0
    6.0464    0.1460   -0.0433 O   0  0  0  0  0  0  0  0  0  0  0  0
    7.0877   -0.7851   -0.1672 C   0  0  0  0  0  0  0  0  0  0  0  0
  1  2  1  0  0  0  0 
  1  3  1  0  0  0  0 
  2  4  1  0  0  0  0 
  3  5  1  0  0  0  0 
  4  6  1  0  0  0  0 
  6  7  1  0  0  0  0 
  7  8  1  0  0  0  0 
  8  9  1  0  0  0  0 
  9 10  1  0  0  0  0 
 10 11  1  0  0  0  0 
 11 12  1  0  0  0  0 
 12 13  1  0  0  0  0 
 13 14  1  0  0  0  0 
 14 15  1  0  0  0  0 
M  END
> <Name>
Bis(2-(2-methoxyethoxy)ethyl) ether

> <Source>
DougDB3DMolFile

> <Tox>
1.636

> <CAS>
143-24-8

$$$$

  CDK

 21 25  0  0  0  0  0  0  0  0999 V2000
    3.0763   -2.1906    0.0000 C   0  0  0  0  0  0  0  0  0  0  0  0
    2.0351   -1.4536    0.0000 C   0  0  0  0  0  0  0  0  0  0  0  0
    4.7125   -2.1906    0.0000 C   0  0  0  0  0  0  0  0  0  0  0  0
    3.0763   -3.8741    0.0000 C   0  0  0  0  0  0  0  0  0  0  0  0
    2.4002   -2.4813    0.0000 Cl  0  0  0  0  0  0  0  0  0  0  0  0
    3.6781   -1.4536    0.0000 C   0  0  0  0  0  0  0  0  0  0  0  0
    2.0351   -3.1304    0.0000 C   0  0  0  0  0  0  0  0  0  0  0  0
    1.4942   -0.8181    0.0000 Cl  0  0  0  0  0  0  0  0  0  0  0  0
    4.7125   -3.8741    0.0000 C   0  0  0  0  0  0  0  0  0  0  0  0
    5.8416   -1.1359    0.0000 C   0  0  0  0  0  0  0  0  0  0  0  0
    5.5577   -2.5016    0.0000 Cl  0  0  0  0  0  0  0  0  0  0  0  0
    1.0818   -4.0837    0.0000 C   0  0  0  0  0  0  0  0  0  0  0  0
    3.4008   -4.7531    0.0000 Cl  0  0  0  0  0  0  0  0  0  0  0  0
    3.6781   -3.1304    0.0000 C   0  0  0  0  0  0  0  0  0  0  0  0
    4.1446   -0.7032    0.0000 Cl  0  0  0  0  0  0  0  0  0  0  0  0
    1.2440   -2.8600    0.0000 Cl  0  0  0  0  0  0  0  0  0  0  0  0
    5.0844   -4.6652    0.0000 Cl  0  0  0  0  0  0  0  0  0  0  0  0
    6.2270   -0.0000    0.0000 Cl  0  0  0  0  0  0  0  0  0  0  0  0
    6.7611   -1.8187    0.0000 Cl  0  0  0  0  0  0  0  0  0  0  0  0
    0.0000   -4.7531    0.0000 O   0  0  0  0  0  0  0  0  0  0  0  0
    4.3068   -2.7856    0.0000 Cl  0  0  0  0  0  0  0  0  0  0  0  0
  1  2  1  0  0  0  0 
  1  3  1  0  0  0  0 
  1  4  1  0  0  0  0 
  1  5  1  0  0  0  0 
  2  6  1  0  0  0  0 
  2  7  1  0  0  0  0 
  2  8  1  0  0  0  0 
  9  3  1  0  0  0  0 
  3 10  1  0  0  0  0 
  3 11  1  0  0  0  0 
  9  4  1  0  0  0  0 
  4 12  1  0  0  0  0 
  4 13  1  0  0  0  0 
 14  6  1  0  0  0  0 
  6 15  1  0  0  0  0 
  6 10  1  0  0  0  0 
 14  7  1  0  0  0  0 
  7 16  1  0  0  0  0 
  7 12  1  0  0  0  0 
  9 14  1  0  0  0  0 
  9 17  1  0  0  0  0 
 10 18  1  0  0  0  0 
 10 19  1  0  0  0  0 
 12 20  2  0  0  0  0 
 14 21  1  0  0  0  0 
M  END
> <Name>
1,3,4-Metheno-2H-cyclobuta(cd)pentalen-2-one, 1,1a,3,3a,4,5,5,5a,5b,6-decachlorooctahydro-

> <Source>
DSSTox2DMolFile

> <Tox>
3.730

> <CAS>
143-50-0

$$$$

  CDK

 21 24  0  0  0  0  0  0  0  0999 V2000
    2.6672   -2.2983    0.0000 C   0  0  0  0  0  0  0  0  0  0  0  0
    3.9937   -2.2983    0.0000 C   0  0  0  0  0  0  0  0  0  0  0  0
    2.0075   -3.4475    0.0000 C   0  0  0  0  0  0  0  0  0  0  0  0
    1.3336   -2.3267    0.0000 C   0  0  0  0  0  0  0  0  0  0  0  0
    1.9933   -1.1705    0.0000 C   0  0  0  0  0  0  0  0  0  0  0  0
    4.6889   -3.4475    0.0000 C   0  0  0  0  0  0  0  0  0  0  0  0
    4.6889   -1.1563    0.0000 C   0  0  0  0  0  0  0  0  0  0  0  0
    2.6814   -4.6038    0.0000 C   0  0  0  0  0  0  0  0  0  0  0  0
    0.6739   -3.4475    0.0000 C   0  0  0  0  0  0  0  0  0  0  0  0
    1.3336   -4.8804    0.0000 C   0  0  0  0  0  0  0  0  0  0  0  0
    0.6384   -1.1705    0.0000 C   0  0  0  0  0  0  0  0  0  0  0  0
    6.0012   -3.4475    0.0000 C   0  0  0  0  0  0  0  0  0  0  0  0
    4.0150   -4.6038    0.0000 C   0  0  0  0  0  0  0  0  0  0  0  0
    6.0012   -1.1563    0.0000 C   0  0  0  0  0  0  0  0  0  0  0  0
    2.0713   -5.2635    0.0000 N   0  0  0  0  0  0  0  0  0  0  0  0
    0.0000   -2.3267    0.0000 C   0  0  0  0  0  0  0  0  0  0  0  0
    6.6609   -2.3267    0.0000 C   0  0  0  0  0  0  0  0  0  0  0  0
    6.6751   -0.0000    0.0000 O   0  0  0  0  0  0  0  0  0  0  0  0
    2.0713   -6.4978    0.0000 C   0  0  0  0  0  0  0  0  0  0  0  0
    3.3056   -7.0936    0.0000 C   0  0  0  0  0  0  0  0  0  0  0  0
    4.2846   -6.5616    0.0000 C   0  0  0  0  0  0  0  0  0  0  0  0
  1  2  1  0  0  0  0 
  1  3  1  0  0  0  0 
  1  4  1  1  0  0  0 
  1  5  1  0  0  0  0 
  2  6  2  0  0  0  0 
  2  7  1  0  0  0  0 
  8  3  1  0  0  0  0 
  3  9  1  0  0  0  0 
  4 10  1  0  0  0  0 
  5 11  1  0  0  0  0 
  6 12  1  0  0  0  0 
  6 13  1  0  0  0  0 
  7 14  2  0  0  0  0 
  8 13  1  0  0  0  0 
  8 15  1  1  0  0  0 
  9 16  1  0  0  0  0 
 15 10  1  0  0  0  0 
 11 16  1  0  0  0  0 
 12 17  2  0  0  0  0 
 14 17  1  0  0  0  0 
 14 18  1  0  0  0  0 
 15 19  1  0  0  0  0 
 20 19  1  0  0  0  0 
 20 21  2  0  0  0  0 
M  END
> <Name>
Morphinan-3-ol, 17-(2-propenyl)-

> <Source>
DSSTox2DMolFile

> <Tox>
2.475

> <CAS>
152-02-3

$$$$

  CDK

 28 31  0  0  0  0  0  0  0  0999 V2000
    3.4230    3.2720    0.0000 C   0  0  0  0  0  0  0  0  0  0  0  0
    3.4230    4.2788    0.0000 C   0  0  0  0  0  0  0  0  0  0  0  0
    2.5673    2.7686    0.0000 C   0  0  0  0  0  0  0  0  0  0  0  0
    5.0842    3.2720    0.0000 C   0  0  0  0  0  0  0  0  0  0  0  0
    2.5673    4.7318    0.0000 C   0  0  0  0  0  0  0  0  0  0  0  0
    4.2788    4.7318    0.0000 N   0  0  0  0  0  0  0  0  0  0  0  0
    1.7115    3.2720    0.0000 C   0  0  0  0  0  0  0  0  0  0  0  0
    5.0842    4.2788    0.0000 C   0  0  0  0  0  0  0  0  0  0  0  0
    5.8896    2.7686    0.0000 C   0  0  0  0  0  0  0  0  0  0  0  0
    1.7115    4.2788    0.0000 C   0  0  0  0  0  0  0  0  0  0  0  0
    0.8558    2.7686    0.0000 O   0  0  0  0  0  0  0  0  0  0  0  0
    5.8896    4.7318    0.0000 C   0  0  0  0  0  0  0  0  0  0  0  0
    6.7454    3.3224    0.0000 C   0  0  0  0  0  0  0  0  0  0  0  0
    0.8558    4.7318    0.0000 O   0  0  0  0  0  0  0  0  0  0  0  0
    0.0000    3.2720    0.0000 C   0  0  0  0  0  0  0  0  0  0  0  0
    7.6011    2.8190    0.0000 N   0  0  0  0  0  0  0  0  0  0  0  0
    0.0000    4.2788    0.0000 C   0  0  0  0  0  0  0  0  0  0  0  0
    8.4569    3.3224    0.0000 C   0  0  0  0  0  0  0  0  0  0  0  0
    7.6011    1.9129    0.0000 C   0  0  0  0  0  0  0  0  0  0  0  0
    9.3630    2.8190    0.0000 C   0  0  0  0  0  0  0  0  0  0  0  0
    8.4569    1.4095    0.0000 C   0  0  0  0  0  0  0  0  0  0  0  0
    9.3630    1.9632    0.0000 N   0  0  0  0  0  0  0  0  0  0  0  0
   10.1684    1.4598    0.0000 C   0  0  0  0  0  0  0  0  0  0  0  0
   11.0242    1.9632    0.0000 C   0  0  0  0  0  0  0  0  0  0  0  0
   10.1684    0.4530    0.0000 C   0  0  0  0  0  0  0  0  0  0  0  0
   11.8296    1.5102    0.0000 C   0  0  0  0  0  0  0  0  0  0  0  0
   11.0242    0.0000    0.0000 C   0  0  0  0  0  0  0  0  0  0  0  0
   11.8296    0.4027    0.0000 C   0  0  0  0  0  0  0  0  0  0  0  0
  1  2  2  0  0  0  0 
  1  3  1  0  0  0  0 
  4  1  1  0  0  0  0 
  5  2  1  0  0  0  0 
  2  6  1  0  0  0  0 
  3  7  2  0  0  0  0 
  8  4  2  0  0  0  0 
  4  9  1  0  0  0  0 
 10  5  2  0  0  0  0 
  6  8  1  0  0  0  0 
  7 10  1  0  0  0  0 
  7 11  1  0  0  0  0 
  8 12  1  0  0  0  0 
  9 13  1  0  0  0  0 
 10 14  1  0  0  0  0 
 11 15  1  0  0  0  0 
 13 16  1  0  0  0  0 
 14 17  1  0  0  0  0 
 16 18  1  0  0  0  0 
 19 16  1  0  0  0  0 
 18 20  1  0  0  0  0 
 21 19  1  0  0  0  0 
 20 22  1  0  0  0  0 
 22 21  1  0  0  0  0 
 22 23  1  0  0  0  0 
 23 24  2  0  0  0  0 
 25 23  1  0  0  0  0 
 24 26  1  0  0  0  0 
 27 25  2  0  0  0  0 
 26 28  2  0  0  0  0 
 28 27  1  0  0  0  0 
M  END
> <Name>
1H-Indole, 5,6-dimethoxy-2-methyl-3-(2-(4-phenyl-1-piperazinyl)ethyl)-

> <Source>
NIST2DMolFile

> <Tox>
2.579

> <CAS>
153-87-7

$$$$

  CDK

 10 10  0  0  0  0  0  0  0  0999 V2000
    1.2184    2.5383    0.0000 C   0  0  0  0  0  0  0  0  0  0  0  0
    0.8123    1.6245    0.0000 C   0  0  0  0  0  0  0  0  0  0  0  0
    1.8276    1.6245    0.0000 C   0  0  0  0  0  0  0  0  0  0  0  0
    0.0000    1.1169    0.0000 C   0  0  0  0  0  0  0  0  0  0  0  0
    2.5891    1.1676    0.0000 C   0  0  0  0  0  0  0  0  0  0  0  0
    3.5029    1.5738    0.0000 C   0  0  0  0  0  0  0  0  0  0  0  0
    4.3659    1.0661    0.0000 C   0  0  0  0  0  0  0  0  0  0  0  0
    3.5029    2.5891    0.0000 N   0  0  0  0  0  0  0  0  0  0  0  0
    4.3659    0.0000    0.0000 O   0  0  0  0  0  0  0  0  0  0  0  0
    5.1782    1.5738    0.0000 O   0  0  0  0  0  0  0  0  0  0  0  0
  2  1  1  0  0  0  0 
  1  3  1  0  0  0  0 
  3  2  1  0  0  0  0 
  2  4  2  0  0  0  0 
  3  5  1  0  0  0  0 
  5  6  1  0  0  0  0 
  6  7  1  0  0  0  0 
  6  8  1  0  0  0  0 
  7  9  2  0  0  0  0 
  7 10  1  0  0  0  0 
M  END
> <Name>
Cyclopropanepropionic acid, alpha-amino-2-methylene-, L-(+)-

> <Source>
NIST2DMolFile

> <Tox>
3.159

> <CAS>
156-56-9

$$$$

  CDK

 16 19  0  0  0  0  0  0  0  0999 V2000
    4.4365   -2.5608    0.0000 C   0  0  0  0  0  0  0  0  0  0  0  0
    3.3124   -1.9222    0.0000 C   0  0  0  0  0  0  0  0  0  0  0  0
    5.5273   -1.9222    0.0000 C   0  0  0  0  0  0  0  0  0  0  0  0
    4.4365   -3.8445    0.0000 C   0  0  0  0  0  0  0  0  0  0  0  0
    3.3124   -0.6385    0.0000 C   0  0  0  0  0  0  0  0  0  0  0  0
    2.2149   -2.5608    0.0000 C   0  0  0  0  0  0  0  0  0  0  0  0
    5.5273   -0.6385    0.0000 C   0  0  0  0  0  0  0  0  0  0  0  0
    6.6514   -2.5608    0.0000 C   0  0  0  0  0  0  0  0  0  0  0  0
    5.5273   -4.4830    0.0000 C   0  0  0  0  0  0  0  0  0  0  0  0
    2.2149   -3.8445    0.0000 C   0  0  0  0  0  0  0  0  0  0  0  0
    4.4365   -0.0000    0.0000 C   0  0  0  0  0  0  0  0  0  0  0  0
    1.0975   -1.9222    0.0000 C   0  0  0  0  0  0  0  0  0  0  0  0
    6.6514   -3.8445    0.0000 C   0  0  0  0  0  0  0  0  0  0  0  0
    1.0975   -4.4830    0.0000 C   0  0  0  0  0  0  0  0  0  0  0  0
    0.0000   -2.5608    0.0000 C   0  0  0  0  0  0  0  0  0  0  0  0
    0.0000   -3.8445    0.0000 C   0  0  0  0  0  0  0  0  0  0  0  0
  1  2  2  0  0  0  0 
  1  3  1  0  0  0  0 
  1  4  1  0  0  0  0 
  2  5  1  0  0  0  0 
  2  6  1  0  0  0  0 
  3  7  2  0  0  0  0 
  3  8  1  0  0  0  0 
  4  9  2  0  0  0  0 
  4 10  1  0  0  0  0 
  5 11  2  0  0  0  0 
 10  6  2  0  0  0  0 
  6 12  1  0  0  0  0 
  7 11  1  0  0  0  0 
  8 13  2  0  0  0  0 
  9 13  1  0  0  0  0 
 10 14  1  0  0  0  0 
 12 15  2  0  0  0  0 
 14 16  2  0  0  0  0 
 16 15  1  0  0  0  0 
M  END
> <Name>
Fluoranthene

> <Source>
DSSTox2DMolFile

> <Tox>
2.005

> <CAS>
206-44-0

$$$$

  CDK

 12 12  0  0  0  0  0  0  0  0999 V2000
   -0.2672    2.0780    0.4595 O   0  0  0  0  0  0  0  0  0  0  0  0
   -1.6593    1.8428    0.4859 C   0  0  0  0  0  0  0  0  0  0  0  0
    0.3683    1.7872   -0.7794 C   0  0  0  0  0  0  0  0  0  0  0  0
   -2.0171    0.3777    0.7867 C   0  0  0  0  0  0  0  0  0  0  0  0
    1.8739    1.6330   -0.5102 C   0  0  0  0  0  0  0  0  0  0  0  0
   -2.2909   -0.2860   -0.4413 O   0  0  0  0  0  0  0  0  0  0  0  0
    2.2894    0.2854   -0.4419 O   0  0  0  0  0  0  0  0  0  0  0  0
   -1.8734   -1.6329   -0.5108 C   0  0  0  0  0  0  0  0  0  0  0  0
    2.0169   -0.3780    0.7865 C   0  0  0  0  0  0  0  0  0  0  0  0
   -0.3676   -1.7848   -0.7799 C   0  0  0  0  0  0  0  0  0  0  0  0
    1.6595   -1.8433    0.4864 C   0  0  0  0  0  0  0  0  0  0  0  0
    0.2676   -2.0791    0.4585 O   0  0  0  0  0  0  0  0  0  0  0  0
  1  2  1  0  0  0  0 
  1  3  1  0  0  0  0 
  2  4  1  0  0  0  0 
  5  3  1  0  0  0  0 
  4  6  1  0  0  0  0 
  7  5  1  0  0  0  0 
  6  8  1  0  0  0  0 
  9  7  1  0  0  0  0 
  8 10  1  0  0  0  0 
 11  9  1  0  0  0  0 
 10 12  1  0  0  0  0 
 12 11  1  0  0  0  0 
M  END
> <Name>
1,4,7,10-Tetraoxacyclododecane

> <Source>
DougDB3DMolFile

> <Tox>
1.794

> <CAS>
294-93-9

$$$$

  CDK

 19 22  0  0  0  0  0  0  0  0999 V2000
    3.6067    4.0900    0.0000 C   0  0  0  0  0  0  0  0  0  0  0  0
    3.1347    3.2760    0.0000 C   0  0  0  0  0  0  0  0  0  0  0  0
    4.5527    4.0913    0.0000 C   0  0  0  0  0  0  0  0  0  0  0  0
    3.6011    2.4519    0.0000 C   0  0  0  0  0  0  0  0  0  0  0  0
    2.1904    3.2886    0.0000 C   0  0  0  0  0  0  0  0  0  0  0  0
    5.0249    3.2740    0.0000 C   0  0  0  0  0  0  0  0  0  0  0  0
    4.5523    2.4547    0.0000 C   0  0  0  0  0  0  0  0  0  0  0  0
    3.1258    1.6393    0.0000 C   0  0  0  0  0  0  0  0  0  0  0  0
    1.7106    2.4700    0.0000 C   0  0  0  0  0  0  0  0  0  0  0  0
    5.9682    3.2742    0.0000 O   0  0  0  0  0  0  0  0  0  0  0  0
    3.5917    0.8190    0.0000 C   0  0  0  0  0  0  0  0  0  0  0  0
    2.8778    0.7294    0.0000 C   0  0  0  0  0  0  0  0  0  0  0  0
    2.1770    1.6459    0.0000 C   0  0  0  0  0  0  0  0  0  0  0  0
    0.8862    1.8634    0.0000 N   0  0  0  0  0  0  0  0  0  0  0  0
    3.1143    0.0000    0.0000 C   0  0  0  0  0  0  0  0  0  0  0  0
    0.9816    0.7437    0.0000 C   0  0  0  0  0  0  0  0  0  0  0  0
    1.6944    0.8322    0.0000 C   0  0  0  0  0  0  0  0  0  0  0  0
    0.0000    2.2922    0.0000 C   0  0  0  0  0  0  0  0  0  0  0  0
    2.1657    0.0065    0.0000 C   0  0  0  0  0  0  0  0  0  0  0  0
  1  2  1  0  0  0  0 
  3  1  2  0  0  0  0 
  4  2  2  0  0  0  0 
  2  5  1  0  0  0  0 
  6  3  1  0  0  0  0 
  4  7  1  0  0  0  0 
  8  4  1  0  0  0  0 
  5  9  1  0  0  0  0 
  7  6  2  0  0  0  0 
  6 10  1  0  0  0  0 
 11  8  1  0  0  0  0 
  8 12  1  1  0  0  0 
  8 13  1  0  0  0  0 
 13  9  1  0  0  0  0 
  9 14  1  1  0  0  0 
 15 11  1  0  0  0  0 
 16 12  1  0  0  0  0 
 13 17  1  0  0  0  0 
 14 16  1  0  0  0  0 
 14 18  1  0  0  0  0 
 19 15  1  0  0  0  0 
 17 19  1  0  0  0  0 
M  END
> <Name>
Morphinan, 3-hydroxy-N-methyl-, (+-)-

> <Source>
NIST2DMolFile

> <Tox>
2.866

> <CAS>
297-90-5

$$$$

  CDK

 16 16  0  0  0  0  0  0  0  0999 V2000
    5.4978   -2.9728    0.0000 S   0  0  0  0  0  0  0  0  0  0  0  0
    6.6529   -2.3012    0.0000 P   0  0  0  0  0  0  0  0  0  0  0  0
    5.9813   -1.1551    0.0000 O   0  0  0  0  0  0  0  0  0  0  0  0
    7.7990   -1.6386    0.0000 O   0  0  0  0  0  0  0  0  0  0  0  0
    7.3155   -3.4563    0.0000 O   0  0  0  0  0  0  0  0  0  0  0  0
    4.6561   -1.1551    0.0000 C   0  0  0  0  0  0  0  0  0  0  0  0
    8.9541   -2.3012    0.0000 C   0  0  0  0  0  0  0  0  0  0  0  0
    8.6497   -3.4563    0.0000 C   0  0  0  0  0  0  0  0  0  0  0  0
    3.9935   -2.3012    0.0000 C   0  0  0  0  0  0  0  0  0  0  0  0
    3.9935   -0.0000    0.0000 C   0  0  0  0  0  0  0  0  0  0  0  0
    2.6594   -2.3012    0.0000 C   0  0  0  0  0  0  0  0  0  0  0  0
    2.6594   -0.0000    0.0000 C   0  0  0  0  0  0  0  0  0  0  0  0
    1.9968   -1.1551    0.0000 C   0  0  0  0  0  0  0  0  0  0  0  0
    0.6626   -1.1551    0.0000 N   0  0  0  0  0  0  0  0  0  0  0  0
    0.0000   -2.3012    0.0000 O   0  0  0  0  0  0  0  0  0  0  0  0
    0.0000   -0.0000    0.0000 O   0  0  0  0  0  0  0  0  0  0  0  0
  1  2  2  0  0  0  0 
  2  3  1  0  0  0  0 
  2  4  1  0  0  0  0 
  2  5  1  0  0  0  0 
  3  6  1  0  0  0  0 
  4  7  1  0  0  0  0 
  5  8  1  0  0  0  0 
  6  9  2  0  0  0  0 
  6 10  1  0  0  0  0 
  9 11  1  0  0  0  0 
 12 10  2  0  0  0  0 
 11 13  2  0  0  0  0 
 13 12  1  0  0  0  0 
 13 14  1  0  0  0  0 
 14 15  2  0  0  0  0 
 14 16  1  0  0  0  0 
M  CHG  1  14   1
M  CHG  1  16  -1
M  END
> <Name>
Phosphorothioic acid, O,O-dimethyl O-(4-nitrophenyl) ester

> <Source>
DSSTox2DMolFile

> <Tox>
4.641

> <CAS>
298-00-0

$$$$

  CDK

 13 12  0  0  0  0  0  0  0  0999 V2000
    4.6591   -1.1561    0.0000 P   0  0  0  0  0  0  0  0  0  0  0  0
    3.9836   -2.3052    0.0000 S   0  0  0  0  0  0  0  0  0  0  0  0
    5.3138   -0.0000    0.0000 S   0  0  0  0  0  0  0  0  0  0  0  0
    5.8083   -1.8107    0.0000 O   0  0  0  0  0  0  0  0  0  0  0  0
    3.5031   -0.4805    0.0000 O   0  0  0  0  0  0  0  0  0  0  0  0
    2.6604   -2.3052    0.0000 C   0  0  0  0  0  0  0  0  0  0  0  0
    5.8083   -3.1409    0.0000 C   0  0  0  0  0  0  0  0  0  0  0  0
    2.3539   -1.1561    0.0000 C   0  0  0  0  0  0  0  0  0  0  0  0
    1.9988   -3.4404    0.0000 S   0  0  0  0  0  0  0  0  0  0  0  0
    6.9643   -3.8095    0.0000 C   0  0  0  0  0  0  0  0  0  0  0  0
    1.1979   -0.4805    0.0000 C   0  0  0  0  0  0  0  0  0  0  0  0
    0.6755   -3.4404    0.0000 C   0  0  0  0  0  0  0  0  0  0  0  0
    0.0000   -4.5965    0.0000 C   0  0  0  0  0  0  0  0  0  0  0  0
  1  2  1  0  0  0  0 
  1  3  2  0  0  0  0 
  1  4  1  0  0  0  0 
  1  5  1  0  0  0  0 
  2  6  1  0  0  0  0 
  4  7  1  0  0  0  0 
  5  8  1  0  0  0  0 
  6  9  1  0  0  0  0 
  7 10  1  0  0  0  0 
  8 11  1  0  0  0  0 
  9 12  1  0  0  0  0 
 12 13  1  0  0  0  0 
M  END
> <Name>
Phosphorodithioic acid, O,O-diethyl S-(ethylthio)methyl ester

> <Source>
DSSTox2DMolFile

> <Tox>
5.416

> <CAS>
298-02-2

$$$$

  CDK

 14 13  0  0  0  0  0  0  0  0999 V2000
    3.4992    2.4994    0.0000 O   0  0  0  0  0  0  0  0  0  0  0  0
    2.4494    2.4994    0.0000 P   0  0  0  0  0  0  0  0  0  0  0  0
    3.9991    3.3492    0.0000 C   0  0  0  0  0  0  0  0  0  0  0  0
    1.4997    2.4994    0.0000 O   0  0  0  0  0  0  0  0  0  0  0  0
    2.4494    1.5496    0.0000 O   0  0  0  0  0  0  0  0  0  0  0  0
    2.4494    3.5492    0.0000 S   0  0  0  0  0  0  0  0  0  0  0  0
    4.9989    3.3492    0.0000 C   0  0  0  0  0  0  0  0  0  0  0  0
    0.9998    3.3992    0.0000 C   0  0  0  0  0  0  0  0  0  0  0  0
    1.5996    0.9998    0.0000 C   0  0  0  0  0  0  0  0  0  0  0  0
    5.5487    4.1990    0.0000 S   0  0  0  0  0  0  0  0  0  0  0  0
    0.0000    3.3992    0.0000 C   0  0  0  0  0  0  0  0  0  0  0  0
    1.5996    0.0000    0.0000 C   0  0  0  0  0  0  0  0  0  0  0  0
    6.4985    4.1990    0.0000 C   0  0  0  0  0  0  0  0  0  0  0  0
    7.0484    5.0488    0.0000 C   0  0  0  0  0  0  0  0  0  0  0  0
  1  2  1  0  0  0  0 
  1  3  1  0  0  0  0 
  2  4  1  0  0  0  0 
  2  5  1  0  0  0  0 
  2  6  2  0  0  0  0 
  3  7  1  0  0  0  0 
  4  8  1  0  0  0  0 
  5  9  1  0  0  0  0 
  7 10  1  0  0  0  0 
  8 11  1  0  0  0  0 
  9 12  1  0  0  0  0 
 10 13  1  0  0  0  0 
 13 14  1  0  0  0  0 
M  END
> <Name>
Phosphorothioic acid, O,O-diethyl ester O-(2-(ethylthio)ethyl) ester

> <Source>
NIST2DMolFile

> <Tox>
4.537

> <CAS>
298-03-3

$$$$

  CDK

 12 12  0  0  0  0  0  0  0  0999 V2000
    4.6557   -3.4529    0.0000 O   0  0  0  0  0  0  0  0  0  0  0  0
    3.9914   -2.3039    0.0000 C   0  0  0  0  0  0  0  0  0  0  0  0
    4.6557   -1.1490    0.0000 C   0  0  0  0  0  0  0  0  0  0  0  0
    2.6570   -2.3039    0.0000 C   0  0  0  0  0  0  0  0  0  0  0  0
    5.9842   -1.1490    0.0000 C   0  0  0  0  0  0  0  0  0  0  0  0
    3.9914   -0.0000    0.0000 N   0  0  0  0  0  0  0  0  0  0  0  0
    1.9927   -3.4529    0.0000 C   0  0  0  0  0  0  0  0  0  0  0  0
    1.9927   -1.1490    0.0000 C   0  0  0  0  0  0  0  0  0  0  0  0
    2.6570   -0.0000    0.0000 C   0  0  0  0  0  0  0  0  0  0  0  0
    0.6642   -3.4529    0.0000 C   0  0  0  0  0  0  0  0  0  0  0  0
    0.6642   -1.1490    0.0000 C   0  0  0  0  0  0  0  0  0  0  0  0
    0.0000   -2.3039    0.0000 C   0  0  0  0  0  0  0  0  0  0  0  0
  2  1  1  6  0  0  0 
  2  3  1  0  0  0  0 
  2  4  1  0  0  0  0 
  3  5  1  1  0  0  0 
  3  6  1  0  0  0  0 
  4  7  2  0  0  0  0 
  4  8  1  0  0  0  0 
  6  9  1  0  0  0  0 
  7 10  1  0  0  0  0 
 11  8  2  0  0  0  0 
 10 12  2  0  0  0  0 
 12 11  1  0  0  0  0 
M  END
> <Name>
Benzenemethanol, alpha-((1S)-1-(methylamino)ethyl)-, (alphaR)-

> <Source>
DSSTox2DMolFile

> <Tox>
2.440

> <CAS>
299-42-3

$$$$

  CDK

 17 17  0  0  0  0  0  0  0  0999 V2000
    2.0055    1.7548    0.0000 P   0  0  0  0  0  0  0  0  0  0  0  0
    2.5069    2.6071    0.0000 O   0  0  0  0  0  0  0  0  0  0  0  0
    1.5041    0.8523    0.0000 N   0  0  0  0  0  0  0  0  0  0  0  0
    1.1532    2.2060    0.0000 O   0  0  0  0  0  0  0  0  0  0  0  0
    2.8578    1.2534    0.0000 S   0  0  0  0  0  0  0  0  0  0  0  0
    3.5096    2.6071    0.0000 C   0  0  0  0  0  0  0  0  0  0  0  0
    0.5014    0.8523    0.0000 C   0  0  0  0  0  0  0  0  0  0  0  0
    1.1532    3.2088    0.0000 C   0  0  0  0  0  0  0  0  0  0  0  0
    4.0110    3.4595    0.0000 C   0  0  0  0  0  0  0  0  0  0  0  0
    4.0110    1.7047    0.0000 C   0  0  0  0  0  0  0  0  0  0  0  0
    0.0000    1.7047    0.0000 C   0  0  0  0  0  0  0  0  0  0  0  0
    0.0000    0.0000    0.0000 C   0  0  0  0  0  0  0  0  0  0  0  0
    3.5096    4.3118    0.0000 Cl  0  0  0  0  0  0  0  0  0  0  0  0
    5.0137    3.4595    0.0000 C   0  0  0  0  0  0  0  0  0  0  0  0
    5.0137    1.7047    0.0000 C   0  0  0  0  0  0  0  0  0  0  0  0
    5.5151    2.6071    0.0000 C   0  0  0  0  0  0  0  0  0  0  0  0
    6.5178    2.6071    0.0000 Cl  0  0  0  0  0  0  0  0  0  0  0  0
  1  2  1  0  0  0  0 
  1  3  1  0  0  0  0 
  1  4  1  0  0  0  0 
  1  5  2  0  0  0  0 
  2  6  1  0  0  0  0 
  3  7  1  0  0  0  0 
  4  8  1  0  0  0  0 
  9  6  2  0  0  0  0 
  6 10  1  0  0  0  0 
  7 11  1  0  0  0  0 
  7 12  1  0  0  0  0 
  9 13  1  0  0  0  0 
 14  9  1  0  0  0  0 
 10 15  2  0  0  0  0 
 16 14  2  0  0  0  0 
 15 16  1  0  0  0  0 
 16 17  1  0  0  0  0 
M  END
> <Name>
Phosphoramidothioic acid, (1-methylethyl)-, O-(2,4-dichlorophenyl) O-methyl ester

> <Source>
NIST2DMolFile

> <Tox>
3.066

> <CAS>
299-85-4

$$$$

  CDK

 32 35  0  0  0  0  0  0  0  0999 V2000
    3.4489    2.4992    0.0000 C   0  0  0  0  0  0  0  0  0  0  0  0
    2.5992    1.9994    0.0000 C   0  0  0  0  0  0  0  0  0  0  0  0
    4.2986    1.9994    0.0000 C   0  0  0  0  0  0  0  0  0  0  0  0
    3.0490    1.1496    0.0000 C   0  0  0  0  0  0  0  0  0  0  0  0
    2.0993    2.8491    0.0000 C   0  0  0  0  0  0  0  0  0  0  0  0
    1.7494    1.4495    0.0000 C   0  0  0  0  0  0  0  0  0  0  0  0
    5.1984    2.4992    0.0000 N   0  0  0  0  0  0  0  0  0  0  0  0
    3.5989    0.2499    0.0000 N   0  0  0  0  0  0  0  0  0  0  0  0
    2.5992    3.7488    0.0000 C   0  0  0  0  0  0  0  0  0  0  0  0
    1.0997    2.8491    0.0000 C   0  0  0  0  0  0  0  0  0  0  0  0
    0.8497    1.9994    0.0000 C   0  0  0  0  0  0  0  0  0  0  0  0
    1.7494    0.4998    0.0000 C   0  0  0  0  0  0  0  0  0  0  0  0
    6.0481    2.0493    0.0000 C   0  0  0  0  0  0  0  0  0  0  0  0
    5.1984    3.4989    0.0000 C   0  0  0  0  0  0  0  0  0  0  0  0
    2.0493    4.5985    0.0000 C   0  0  0  0  0  0  0  0  0  0  0  0
    0.5998    3.6988    0.0000 C   0  0  0  0  0  0  0  0  0  0  0  0
    0.0000    1.4995    0.0000 C   0  0  0  0  0  0  0  0  0  0  0  0
    0.8997    0.0000    0.0000 C   0  0  0  0  0  0  0  0  0  0  0  0
    6.8978    2.5492    0.0000 C   0  0  0  0  0  0  0  0  0  0  0  0
    6.0481    3.9987    0.0000 C   0  0  0  0  0  0  0  0  0  0  0  0
    1.0497    4.5985    0.0000 C   0  0  0  0  0  0  0  0  0  0  0  0
    0.0000    0.4499    0.0000 C   0  0  0  0  0  0  0  0  0  0  0  0
    6.8978    3.5489    0.0000 C   0  0  0  0  0  0  0  0  0  0  0  0
    7.0478    4.5486    0.0000 C   0  0  0  0  0  0  0  0  0  0  0  0
    7.9475    3.3489    0.0000 N   0  0  0  0  0  0  0  0  0  0  0  0
    8.0474    4.8984    0.0000 N   0  0  0  0  0  0  0  0  0  0  0  0
    6.3480    5.1484    0.0000 O   0  0  0  0  0  0  0  0  0  0  0  0
    8.2474    2.3992    0.0000 C   0  0  0  0  0  0  0  0  0  0  0  0
    8.5473    4.1487    0.0000 C   0  0  0  0  0  0  0  0  0  0  0  0
    9.2471    2.2993    0.0000 C   0  0  0  0  0  0  0  0  0  0  0  0
    9.5470    3.9987    0.0000 C   0  0  0  0  0  0  0  0  0  0  0  0
    9.8469    3.0490    0.0000 C   0  0  0  0  0  0  0  0  0  0  0  0
  1  2  1  0  0  0  0 
  1  3  1  0  0  0  0 
  2  4  1  0  0  0  0 
  2  5  1  0  0  0  0 
  2  6  1  0  0  0  0 
  3  7  1  0  0  0  0 
  4  8  3  0  0  0  0 
  9  5  2  0  0  0  0 
  5 10  1  0  0  0  0 
 11  6  2  0  0  0  0 
  6 12  1  0  0  0  0 
 13  7  1  0  0  0  0 
  7 14  1  0  0  0  0 
 15  9  1  0  0  0  0 
 10 16  2  0  0  0  0 
 17 11  1  0  0  0  0 
 12 18  2  0  0  0  0 
 19 13  1  0  0  0  0 
 14 20  1  0  0  0  0 
 21 15  2  0  0  0  0 
 16 21  1  0  0  0  0 
 22 17  2  0  0  0  0 
 18 22  1  0  0  0  0 
 23 19  1  0  0  0  0 
 20 23  1  0  0  0  0 
 23 24  1  0  0  0  0 
 23 25  1  0  0  0  0 
 24 26  1  0  0  0  0 
 24 27  2  0  0  0  0 
 28 25  1  0  0  0  0 
 25 29  1  0  0  0  0 
 30 28  1  0  0  0  0 
 29 31  1  0  0  0  0 
 32 30  1  0  0  0  0 
 31 32  1  0  0  0  0 
M  END
> <Name>
(1,4'-Bipiperidine)-4'-carboxamide, 1'-(3-cyano-3,3-diphenylpropyl)-

> <Source>
NIST2DMolFile

> <Tox>
3.129

> <CAS>
302-41-0

$$$$

  CDK

 28 30  0  0  0  0  0  0  0  0999 V2000
   10.3725   -2.6589    0.0000 C   0  0  0  0  0  0  0  0  0  0  0  0
   11.5220   -1.9942    0.0000 C   0  0  0  0  0  0  0  0  0  0  0  0
    9.2093   -1.9942    0.0000 C   0  0  0  0  0  0  0  0  0  0  0  0
   10.3725   -3.9745    0.0000 C   0  0  0  0  0  0  0  0  0  0  0  0
   12.6714   -2.6589    0.0000 O   0  0  0  0  0  0  0  0  0  0  0  0
   11.5220   -0.6647    0.0000 O   0  0  0  0  0  0  0  0  0  0  0  0
    8.0598   -2.6589    0.0000 C   0  0  0  0  0  0  0  0  0  0  0  0
    9.2093   -0.6647    0.0000 O   0  0  0  0  0  0  0  0  0  0  0  0
    9.2093   -4.6393    0.0000 C   0  0  0  0  0  0  0  0  0  0  0  0
   11.5220   -4.6393    0.0000 C   0  0  0  0  0  0  0  0  0  0  0  0
   12.6714   -3.9745    0.0000 C   0  0  0  0  0  0  0  0  0  0  0  0
    6.9243   -1.9942    0.0000 C   0  0  0  0  0  0  0  0  0  0  0  0
    8.0598   -3.9745    0.0000 C   0  0  0  0  0  0  0  0  0  0  0  0
    9.2093   -5.9687    0.0000 Cl  0  0  0  0  0  0  0  0  0  0  0  0
   13.8485   -4.6531    0.0000 C   0  0  0  0  0  0  0  0  0  0  0  0
    5.7610   -2.6589    0.0000 N   0  0  0  0  0  0  0  0  0  0  0  0
    6.9243   -0.6647    0.0000 O   0  0  0  0  0  0  0  0  0  0  0  0
    4.6116   -1.9942    0.0000 C   0  0  0  0  0  0  0  0  0  0  0  0
    4.6116   -0.6647    0.0000 C   0  0  0  0  0  0  0  0  0  0  0  0
    3.4483   -2.6589    0.0000 C   0  0  0  0  0  0  0  0  0  0  0  0
    3.4621   -0.0000    0.0000 O   0  0  0  0  0  0  0  0  0  0  0  0
    5.7748   -0.0000    0.0000 O   0  0  0  0  0  0  0  0  0  0  0  0
    2.3127   -1.9942    0.0000 C   0  0  0  0  0  0  0  0  0  0  0  0
    1.1633   -2.6589    0.0000 C   0  0  0  0  0  0  0  0  0  0  0  0
    2.3127   -0.6647    0.0000 C   0  0  0  0  0  0  0  0  0  0  0  0
    0.0000   -1.9942    0.0000 C   0  0  0  0  0  0  0  0  0  0  0  0
    1.1633   -0.0000    0.0000 C   0  0  0  0  0  0  0  0  0  0  0  0
    0.0000   -0.6647    0.0000 C   0  0  0  0  0  0  0  0  0  0  0  0
  1  2  1  0  0  0  0 
  1  3  1  0  0  0  0 
  1  4  2  0  0  0  0 
  2  5  1  0  0  0  0 
  2  6  2  0  0  0  0 
  7  3  2  0  0  0  0 
  3  8  1  0  0  0  0 
  4  9  1  0  0  0  0 
  4 10  1  0  0  0  0 
  5 11  1  0  0  0  0 
  7 12  1  0  0  0  0 
  7 13  1  0  0  0  0 
 13  9  2  0  0  0  0 
  9 14  1  0  0  0  0 
 10 11  1  0  0  0  0 
 11 15  1  6  0  0  0 
 12 16  1  0  0  0  0 
 12 17  2  0  0  0  0 
 16 18  1  0  0  0  0 
 18 19  1  1  0  0  0 
 18 20  1  0  0  0  0 
 19 21  2  0  0  0  0 
 19 22  1  0  0  0  0 
 20 23  1  0  0  0  0 
 23 24  2  0  0  0  0 
 23 25  1  0  0  0  0 
 24 26  1  0  0  0  0 
 25 27  2  0  0  0  0 
 26 28  2  0  0  0  0 
 27 28  1  0  0  0  0 
M  END
> <Name>
L-Phenylalanine, N-((5-chloro-3,4-dihydro-8-hydroxy-3-methyl-1-oxo-1H-2-benzopyran-7-yl)carbonyl)-, (R)-

> <Source>
DSSTox2DMolFile

> <Tox>
4.305

> <CAS>
303-47-9

$$$$

  CDK

 22 24  0  0  0  0  0  0  0  0999 V2000
    1.6607    4.6801    0.0000 C   0  0  0  0  0  0  0  0  0  0  0  0
    1.6607    5.6363    0.0000 C   0  0  0  0  0  0  0  0  0  0  0  0
    2.8181    3.9756    0.0000 N   0  0  0  0  0  0  0  0  0  0  0  0
    0.8052    4.1769    0.0000 C   0  0  0  0  0  0  0  0  0  0  0  0
    2.3652    6.3408    0.0000 C   0  0  0  0  0  0  0  0  0  0  0  0
    0.8052    6.1395    0.0000 C   0  0  0  0  0  0  0  0  0  0  0  0
    3.9253    4.6801    0.0000 C   0  0  0  0  0  0  0  0  0  0  0  0
    2.8181    3.0698    0.0000 C   0  0  0  0  0  0  0  0  0  0  0  0
    0.0000    4.6801    0.0000 C   0  0  0  0  0  0  0  0  0  0  0  0
    3.2711    6.3408    0.0000 C   0  0  0  0  0  0  0  0  0  0  0  0
    0.0000    5.6363    0.0000 C   0  0  0  0  0  0  0  0  0  0  0  0
    3.9253    5.6363    0.0000 C   0  0  0  0  0  0  0  0  0  0  0  0
    4.7305    4.1769    0.0000 C   0  0  0  0  0  0  0  0  0  0  0  0
    3.5730    2.5162    0.0000 C   0  0  0  0  0  0  0  0  0  0  0  0
    4.7305    6.1395    0.0000 C   0  0  0  0  0  0  0  0  0  0  0  0
    5.5860    4.6801    0.0000 C   0  0  0  0  0  0  0  0  0  0  0  0
    3.5730    1.5097    0.0000 C   0  0  0  0  0  0  0  0  0  0  0  0
    5.5860    5.6363    0.0000 C   0  0  0  0  0  0  0  0  0  0  0  0
    4.4788    1.0065    0.0000 N   0  0  0  0  0  0  0  0  0  0  0  0
    6.4415    6.1395    0.0000 O   0  0  0  0  0  0  0  0  0  0  0  0
    5.3343    1.5097    0.0000 C   0  0  0  0  0  0  0  0  0  0  0  0
    4.4788    0.0000    0.0000 C   0  0  0  0  0  0  0  0  0  0  0  0
  1  2  2  0  0  0  0 
  3  1  1  0  0  0  0 
  1  4  1  0  0  0  0 
  2  5  1  0  0  0  0 
  6  2  1  0  0  0  0 
  7  3  1  0  0  0  0 
  3  8  1  0  0  0  0 
  4  9  2  0  0  0  0 
  5 10  1  0  0  0  0 
 11  6  2  0  0  0  0 
  7 12  2  0  0  0  0 
 13  7  1  0  0  0  0 
  8 14  1  0  0  0  0 
  9 11  1  0  0  0  0 
 10 12  1  0  0  0  0 
 12 15  1  0  0  0  0 
 16 13  2  0  0  0  0 
 17 14  1  0  0  0  0 
 15 18  2  0  0  0  0 
 18 16  1  0  0  0  0 
 19 17  1  0  0  0  0 
 18 20  1  0  0  0  0 
 19 21  1  0  0  0  0 
 19 22  1  0  0  0  0 
M  END
> <Name>
5H-Dibenz(b,f)azepin-2-ol, 10,11-dihydro-5-(3-(dimethylamino)propyl)-

> <Source>
NIST2DMolFile

> <Tox>
1.998

> <CAS>
303-70-8

$$$$

  CDK

 16 16  0  0  0  0  0  0  0  0999 V2000
    1.1532   -3.9920    0.0000 C   0  0  0  0  0  0  0  0  0  0  0  0
    2.3065   -3.3307    0.0000 C   0  0  0  0  0  0  0  0  0  0  0  0
    2.3065   -2.0000    0.0000 C   0  0  0  0  0  0  0  0  0  0  0  0
    3.4597   -3.9920    0.0000 C   0  0  0  0  0  0  0  0  0  0  0  0
    3.4597   -1.3307    0.0000 C   0  0  0  0  0  0  0  0  0  0  0  0
    1.1532   -1.3307    0.0000 N   0  0  0  0  0  0  0  0  0  0  0  0
    4.6049   -3.3307    0.0000 C   0  0  0  0  0  0  0  0  0  0  0  0
    4.6049   -2.0000    0.0000 C   0  0  0  0  0  0  0  0  0  0  0  0
    3.4597   -0.0000    0.0000 C   0  0  0  0  0  0  0  0  0  0  0  0
    0.0000   -2.0000    0.0000 C   0  0  0  0  0  0  0  0  0  0  0  0
    1.1532   -0.0000    0.0000 C   0  0  0  0  0  0  0  0  0  0  0  0
    5.7581   -3.9920    0.0000 O   0  0  0  0  0  0  0  0  0  0  0  0
    6.9114   -3.3307    0.0000 C   0  0  0  0  0  0  0  0  0  0  0  0
    6.9114   -2.0000    0.0000 O   0  0  0  0  0  0  0  0  0  0  0  0
    8.0646   -3.9920    0.0000 N   0  0  0  0  0  0  0  0  0  0  0  0
    8.0646   -5.3226    0.0000 C   0  0  0  0  0  0  0  0  0  0  0  0
  1  2  1  0  0  0  0 
  2  3  2  0  0  0  0 
  2  4  1  0  0  0  0 
  3  5  1  0  0  0  0 
  3  6  1  0  0  0  0 
  7  4  2  0  0  0  0 
  5  8  2  0  0  0  0 
  5  9  1  0  0  0  0 
  6 10  1  0  0  0  0 
  6 11  1  0  0  0  0 
  8  7  1  0  0  0  0 
  7 12  1  0  0  0  0 
 12 13  1  0  0  0  0 
 13 14  2  0  0  0  0 
 13 15  1  0  0  0  0 
 15 16  1  0  0  0  0 
M  END
> <Name>
Phenol, 4-(dimethylamino)-3,5-dimethyl-, methylcarbamate (ester) (9CI)

> <Source>
DSSTox2DMolFile

> <Tox>
4.201

> <CAS>
315-18-4

$$$$

  CDK

 15 17  0  0  0  0  0  0  0  0999 V2000
    1.7791    1.5249    0.0000 C   0  0  0  0  0  0  0  0  0  0  0  0
    1.7791    2.4907    0.0000 C   0  0  0  0  0  0  0  0  0  0  0  0
    0.9150    1.0166    0.0000 C   0  0  0  0  0  0  0  0  0  0  0  0
    2.5924    1.0166    0.0000 C   0  0  0  0  0  0  0  0  0  0  0  0
    0.9150    2.9990    0.0000 C   0  0  0  0  0  0  0  0  0  0  0  0
    2.5924    2.9990    0.0000 N   0  0  0  0  0  0  0  0  0  0  0  0
    0.0000    1.5249    0.0000 C   0  0  0  0  0  0  0  0  0  0  0  0
    3.4565    1.5249    0.0000 C   0  0  0  0  0  0  0  0  0  0  0  0
    2.5924    0.0000    0.0000 N   0  0  0  0  0  0  0  0  0  0  0  0
    0.0000    2.4907    0.0000 C   0  0  0  0  0  0  0  0  0  0  0  0
    3.4565    2.4907    0.0000 C   0  0  0  0  0  0  0  0  0  0  0  0
    4.3715    1.0166    0.0000 C   0  0  0  0  0  0  0  0  0  0  0  0
    4.3715    2.9990    0.0000 C   0  0  0  0  0  0  0  0  0  0  0  0
    5.2356    1.5249    0.0000 C   0  0  0  0  0  0  0  0  0  0  0  0
    5.2356    2.4907    0.0000 C   0  0  0  0  0  0  0  0  0  0  0  0
  1  2  1  0  0  0  0 
  1  3  2  0  0  0  0 
  4  1  1  0  0  0  0 
  5  2  2  0  0  0  0 
  2  6  1  0  0  0  0 
  3  7  1  0  0  0  0 
  8  4  2  0  0  0  0 
  4  9  1  0  0  0  0 
 10  5  1  0  0  0  0 
  6 11  2  0  0  0  0 
  7 10  2  0  0  0  0 
  8 11  1  0  0  0  0 
 12  8  1  0  0  0  0 
 11 13  1  0  0  0  0 
 14 12  1  0  0  0  0 
 13 15  1  0  0  0  0 
 15 14  1  0  0  0  0 
M  END
> <Name>
9-Acridinamine, 1,2,3,4-tetrahydro- (9CI)

> <Source>
NIST2DMolFile

> <Tox>
3.452

> <CAS>
321-64-2

$$$$

  CDK

 17 17  0  0  0  0  0  0  0  0999 V2000
    7.5092    2.4253    0.0000 C   0  0  0  0  0  0  0  0  0  0  0  0
    6.1099    2.4253    0.0000 C   0  0  0  0  0  0  0  0  0  0  0  0
    5.4103    1.2127    0.0000 O   0  0  0  0  0  0  0  0  0  0  0  0
    5.4103    3.6380    0.0000 O   0  0  0  0  0  0  0  0  0  0  0  0
    4.0111    3.6380    0.0000 C   0  0  0  0  0  0  0  0  0  0  0  0
    3.3115    2.4253    0.0000 C   0  0  0  0  0  0  0  0  0  0  0  0
    3.3115    4.8506    0.0000 C   0  0  0  0  0  0  0  0  0  0  0  0
    1.9123    2.4253    0.0000 C   0  0  0  0  0  0  0  0  0  0  0  0
    1.9123    4.8506    0.0000 C   0  0  0  0  0  0  0  0  0  0  0  0
    4.0111    6.0633    0.0000 C   0  0  0  0  0  0  0  0  0  0  0  0
    1.2127    3.6380    0.0000 C   0  0  0  0  0  0  0  0  0  0  0  0
    1.2127    1.2127    0.0000 C   0  0  0  0  0  0  0  0  0  0  0  0
    3.3115    7.2760    0.0000 O   0  0  0  0  0  0  0  0  0  0  0  0
    5.4103    6.0633    0.0000 O   0  0  0  0  0  0  0  0  0  0  0  0
    2.4253    0.5130    0.0000 F   0  0  0  0  0  0  0  0  0  0  0  0
    0.5130    0.0000    0.0000 F   0  0  0  0  0  0  0  0  0  0  0  0
    0.0000    1.9123    0.0000 F   0  0  0  0  0  0  0  0  0  0  0  0
  1  2  1  0  0  0  0 
  2  3  2  0  0  0  0 
  2  4  1  0  0  0  0 
  4  5  1  0  0  0  0 
  5  6  2  0  0  0  0 
  5  7  1  0  0  0  0 
  6  8  1  0  0  0  0 
  9  7  2  0  0  0  0 
  7 10  1  0  0  0  0 
  8 11  2  0  0  0  0 
  8 12  1  0  0  0  0 
 11  9  1  0  0  0  0 
 10 13  1  0  0  0  0 
 10 14  2  0  0  0  0 
 12 15  1  0  0  0  0 
 12 16  1  0  0  0  0 
 12 17  1  0  0  0  0 
M  END
> <Name>
2,4-Cresotic acid, alpha,alpha,alpha-trifluoro-, acetate

> <Source>
IndexNet2DMolFile

> <Tox>
2.790

> <CAS>
322-79-2

$$$$

  CDK

 13 12  0  0  0  0  0  0  0  0999 V2000
   -0.1480   -1.8850    0.0309 C   0  0  0  0  0  0  0  0  0  0  0  0
   -1.4693   -2.3003    0.7000 C   0  0  0  0  0  0  0  0  0  0  0  0
    0.6909   -2.7120   -0.2878 O   0  0  0  0  0  0  0  0  0  0  0  0
    0.0512   -0.5105   -0.2802 N   0  0  0  0  0  0  0  0  0  0  0  0
   -2.5336   -2.0875   -0.1140 F   0  0  0  0  0  0  0  0  0  0  0  0
   -0.6564    0.5220    0.5318 C   0  0  0  0  0  0  0  0  0  0  0  0
    1.3487   -0.0564   -0.8485 C   0  0  0  0  0  0  0  0  0  0  0  0
   -1.6337    1.3189   -0.3253 C   0  0  0  0  0  0  0  0  0  0  0  0
    2.3781    0.3264    0.2117 C   0  0  0  0  0  0  0  0  0  0  0  0
   -2.3186    2.3945    0.5032 C   0  0  0  0  0  0  0  0  0  0  0  0
    3.6091    0.9437   -0.4298 C   0  0  0  0  0  0  0  0  0  0  0  0
   -3.2935    3.1937   -0.3316 C   0  0  0  0  0  0  0  0  0  0  0  0
    4.6403    1.3235    0.6087 C   0  0  0  0  0  0  0  0  0  0  0  0
  1  2  1  0  0  0  0 
  1  3  2  0  0  0  0 
  1  4  1  0  0  0  0 
  2  5  1  0  0  0  0 
  4  6  1  0  0  0  0 
  4  7  1  0  0  0  0 
  6  8  1  0  0  0  0 
  7  9  1  0  0  0  0 
  8 10  1  0  0  0  0 
  9 11  1  0  0  0  0 
 10 12  1  0  0  0  0 
 11 13  1  0  0  0  0 
M  END
> <Name>
Acetamide, N,N-dibutyl-2-fluoro-

> <Source>
DougDB3DMolFile

> <Tox>
3.709

> <CAS>
325-85-9

$$$$

  CDK

 16 17  0  0  0  0  0  0  0  0999 V2000
    3.8178    0.7029    0.0000 N   0  0  0  0  0  0  0  0  0  0  0  0
    4.6271    1.2907    0.0000 C   0  0  0  0  0  0  0  0  0  0  0  0
    3.0086    1.2907    0.0000 C   0  0  0  0  0  0  0  0  0  0  0  0
    4.3190    2.2424    0.0000 N   0  0  0  0  0  0  0  0  0  0  0  0
    5.5801    0.9805    0.0000 C   0  0  0  0  0  0  0  0  0  0  0  0
    2.0380    1.0832    0.0000 C   0  0  0  0  0  0  0  0  0  0  0  0
    3.3190    2.2393    0.0000 C   0  0  0  0  0  0  0  0  0  0  0  0
    5.7879    0.0000    0.0000 F   0  0  0  0  0  0  0  0  0  0  0  0
    6.3253    1.6507    0.0000 F   0  0  0  0  0  0  0  0  0  0  0  0
    5.0338    0.1402    0.0000 F   0  0  0  0  0  0  0  0  0  0  0  0
    1.3704    1.8197    0.0000 C   0  0  0  0  0  0  0  0  0  0  0  0
    2.6534    2.9798    0.0000 C   0  0  0  0  0  0  0  0  0  0  0  0
    1.6774    2.7733    0.0000 C   0  0  0  0  0  0  0  0  0  0  0  0
    1.0059    3.5175    0.0000 N   0  0  0  0  0  0  0  0  0  0  0  0
    1.3148    4.4710    0.0000 O   0  0  0  0  0  0  0  0  0  0  0  0
    0.0000    3.5236    0.0000 O   0  0  0  0  0  0  0  0  0  0  0  0
  2  1  1  0  0  0  0 
  1  3  1  0  0  0  0 
  4  2  2  0  0  0  0 
  2  5  1  0  0  0  0 
  3  6  1  0  0  0  0 
  3  7  2  0  0  0  0 
  7  4  1  0  0  0  0 
  5  8  1  0  0  0  0 
  5  9  1  0  0  0  0 
  5 10  1  0  0  0  0 
  6 11  2  0  0  0  0 
 12  7  1  0  0  0  0 
 11 13  1  0  0  0  0 
 13 12  2  0  0  0  0 
 13 14  1  0  0  0  0 
 14 15  2  0  0  0  0 
 14 16  2  0  0  0  0 
M  END
> <Name>
Benzimidazole, 5-nitro-2-(trifluoromethyl)-

> <Source>
NIST2DMolFile

> <Tox>
4.800

> <CAS>
327-19-5

$$$$

  CDK

 14 14  0  0  0  0  0  0  0  0999 V2000
    0.0000   -2.6606    0.0000 Cl  0  0  0  0  0  0  0  0  0  0  0  0
    1.1541   -1.9972    0.0000 C   0  0  0  0  0  0  0  0  0  0  0  0
    1.1541   -0.6634    0.0000 C   0  0  0  0  0  0  0  0  0  0  0  0
    2.3012   -2.6606    0.0000 C   0  0  0  0  0  0  0  0  0  0  0  0
    2.3012   -0.0000    0.0000 C   0  0  0  0  0  0  0  0  0  0  0  0
    0.0000   -0.0000    0.0000 Cl  0  0  0  0  0  0  0  0  0  0  0  0
    3.4553   -1.9972    0.0000 C   0  0  0  0  0  0  0  0  0  0  0  0
    3.4553   -0.6634    0.0000 C   0  0  0  0  0  0  0  0  0  0  0  0
    4.6093   -2.6606    0.0000 N   0  0  0  0  0  0  0  0  0  0  0  0
    5.7565   -1.9972    0.0000 C   0  0  0  0  0  0  0  0  0  0  0  0
    6.9106   -2.6606    0.0000 O   0  0  0  0  0  0  0  0  0  0  0  0
    5.7565   -0.6634    0.0000 N   0  0  0  0  0  0  0  0  0  0  0  0
    6.9106   -0.0000    0.0000 C   0  0  0  0  0  0  0  0  0  0  0  0
    4.6093   -0.0000    0.0000 C   0  0  0  0  0  0  0  0  0  0  0  0
  1  2  1  0  0  0  0 
  2  3  2  0  0  0  0 
  2  4  1  0  0  0  0 
  3  5  1  0  0  0  0 
  3  6  1  0  0  0  0 
  7  4  2  0  0  0  0 
  5  8  2  0  0  0  0 
  8  7  1  0  0  0  0 
  7  9  1  0  0  0  0 
  9 10  1  0  0  0  0 
 10 11  2  0  0  0  0 
 10 12  1  0  0  0  0 
 12 13  1  0  0  0  0 
 12 14  1  0  0  0  0 
M  END
> <Name>
Urea, N'-(3,4-dichlorophenyl)-N,N-dimethyl-

> <Source>
DSSTox2DMolFile

> <Tox>
2.360

> <CAS>
330-54-1

$$$$

  CDK

  7  6  0  0  0  0  0  0  0  0999 V2000
    2.1577   -0.2649   -0.0028 As  0  0  0  0  0  0  0  0  0  0  0  0
    2.9053   -0.2164    2.0696 Cl  0  0  0  0  0  0  0  0  0  0  0  0
    3.0289   -2.0011   -1.0426 Cl  0  0  0  0  0  0  0  0  0  0  0  0
    2.6678    1.2072   -0.8286 O   0  0  0  0  0  0  0  0  0  0  0  0
    0.2779   -0.3972    0.0069 C   0  0  0  0  0  0  0  0  0  0  0  0
   -0.4920    0.6949    0.0129 C   0  0  0  0  0  0  0  0  0  0  0  0
   -2.1516    0.5950    0.0223 Cl  0  0  0  0  0  0  0  0  0  0  0  0
  1  2  1  0  0  0  0 
  1  3  1  0  0  0  0 
  1  4  2  0  0  0  0 
  1  5  1  0  0  0  0 
  5  6  2  0  0  0  0 
  7  6  1  0  0  0  0 
M  END
> <Name>
Arsine oxide, dichloro(2-chlorovinyl)-

> <Source>
Chemidplus3DMolFile

> <Tox>
4.650

> <CAS>
333-25-5

$$$$

  CDK

 18 18  0  0  0  0  0  0  0  0999 V2000
    9.2091   -1.8128    0.0000 C   0  0  0  0  0  0  0  0  0  0  0  0
    9.2091   -3.1491    0.0000 C   0  0  0  0  0  0  0  0  0  0  0  0
    8.0593   -1.1498    0.0000 C   0  0  0  0  0  0  0  0  0  0  0  0
   10.3590   -3.8121    0.0000 N   0  0  0  0  0  0  0  0  0  0  0  0
    8.0593   -3.8121    0.0000 C   0  0  0  0  0  0  0  0  0  0  0  0
    6.9094   -1.8128    0.0000 C   0  0  0  0  0  0  0  0  0  0  0  0
    6.9094   -3.1491    0.0000 C   0  0  0  0  0  0  0  0  0  0  0  0
    5.7596   -1.1498    0.0000 S   0  0  0  0  0  0  0  0  0  0  0  0
    6.4226   -0.0000    0.0000 O   0  0  0  0  0  0  0  0  0  0  0  0
    5.0862   -2.2997    0.0000 O   0  0  0  0  0  0  0  0  0  0  0  0
    4.5994   -0.4869    0.0000 N   0  0  0  0  0  0  0  0  0  0  0  0
    3.4495   -1.1498    0.0000 C   0  0  0  0  0  0  0  0  0  0  0  0
    3.4495   -2.4861    0.0000 O   0  0  0  0  0  0  0  0  0  0  0  0
    2.2997   -0.4869    0.0000 N   0  0  0  0  0  0  0  0  0  0  0  0
    1.1498   -1.1498    0.0000 C   0  0  0  0  0  0  0  0  0  0  0  0
    1.1498   -2.4861    0.0000 C   0  0  0  0  0  0  0  0  0  0  0  0
    0.0000   -3.1491    0.0000 C   0  0  0  0  0  0  0  0  0  0  0  0
    0.0000   -4.4751    0.0000 C   0  0  0  0  0  0  0  0  0  0  0  0
  1  2  2  0  0  0  0 
  1  3  1  0  0  0  0 
  2  4  1  0  0  0  0 
  2  5  1  0  0  0  0 
  6  3  2  0  0  0  0 
  5  7  2  0  0  0  0 
  7  6  1  0  0  0  0 
  6  8  1  0  0  0  0 
  8  9  2  0  0  0  0 
  8 10  2  0  0  0  0 
  8 11  1  0  0  0  0 
 11 12  1  0  0  0  0 
 12 13  2  0  0  0  0 
 12 14  1  0  0  0  0 
 14 15  1  0  0  0  0 
 15 16  1  0  0  0  0 
 16 17  1  0  0  0  0 
 17 18  1  0  0  0  0 
M  END
> <Name>
Benzenesulfonamide, 4-amino-N-((butylamino)carbonyl)-

> <Source>
DSSTox2DMolFile

> <Tox>
1.790

> <CAS>
339-43-5

$$$$

  CDK

 21 22  0  0  0  0  0  0  0  0999 V2000
    0.0000   -2.0022    0.0000 C   0  0  0  0  0  0  0  0  0  0  0  0
    0.0000   -0.6628    0.0000 C   0  0  0  0  0  0  0  0  0  0  0  0
    1.1461   -2.6650    0.0000 C   0  0  0  0  0  0  0  0  0  0  0  0
    1.1461   -0.0000    0.0000 C   0  0  0  0  0  0  0  0  0  0  0  0
    2.3060   -2.0022    0.0000 C   0  0  0  0  0  0  0  0  0  0  0  0
    2.3060   -0.6628    0.0000 C   0  0  0  0  0  0  0  0  0  0  0  0
    3.4520   -2.6650    0.0000 S   0  0  0  0  0  0  0  0  0  0  0  0
    2.7892   -3.8110    0.0000 O   0  0  0  0  0  0  0  0  0  0  0  0
    4.1148   -1.5051    0.0000 O   0  0  0  0  0  0  0  0  0  0  0  0
    4.5981   -3.3278    0.0000 N   0  0  0  0  0  0  0  0  0  0  0  0
    5.7580   -2.6650    0.0000 C   0  0  0  0  0  0  0  0  0  0  0  0
    6.9041   -3.3278    0.0000 N   0  0  0  0  0  0  0  0  0  0  0  0
    5.7580   -1.3256    0.0000 N   0  0  0  0  0  0  0  0  0  0  0  0
    8.0501   -2.6650    0.0000 C   0  0  0  0  0  0  0  0  0  0  0  0
    6.9041   -0.6628    0.0000 C   0  0  0  0  0  0  0  0  0  0  0  0
    8.0501   -1.3256    0.0000 C   0  0  0  0  0  0  0  0  0  0  0  0
    9.2100   -0.6628    0.0000 O   0  0  0  0  0  0  0  0  0  0  0  0
   10.3561   -1.3256    0.0000 C   0  0  0  0  0  0  0  0  0  0  0  0
   11.5022   -0.6628    0.0000 C   0  0  0  0  0  0  0  0  0  0  0  0
   12.6620   -1.3256    0.0000 O   0  0  0  0  0  0  0  0  0  0  0  0
   13.8081   -0.6628    0.0000 C   0  0  0  0  0  0  0  0  0  0  0  0
  1  2  2  0  0  0  0 
  1  3  1  0  0  0  0 
  2  4  1  0  0  0  0 
  5  3  2  0  0  0  0 
  4  6  2  0  0  0  0 
  6  5  1  0  0  0  0 
  5  7  1  0  0  0  0 
  7  8  2  0  0  0  0 
  7  9  2  0  0  0  0 
  7 10  1  0  0  0  0 
 10 11  1  0  0  0  0 
 11 12  2  0  0  0  0 
 11 13  1  0  0  0  0 
 12 14  1  0  0  0  0 
 15 13  2  0  0  0  0 
 14 16  2  0  0  0  0 
 16 15  1  0  0  0  0 
 16 17  1  0  0  0  0 
 17 18  1  0  0  0  0 
 18 19  1  0  0  0  0 
 19 20  1  0  0  0  0 
 20 21  1  0  0  0  0 
M  END
> <Name>
Benzenesulfonamide, N-(5-(2-methoxyethoxy)-2-pyrimidinyl)-

> <Source>
DSSTox2DMolFile

> <Tox>
1.999

> <CAS>
339-44-6

$$$$

  CDK

  9  9  0  0  0  0  0  0  0  0999 V2000
   -1.7050   -0.1085    0.0004 C   0  0  0  0  0  0  0  0  0  0  0  0
   -2.2683   -1.1888    0.0028 O   0  0  0  0  0  0  0  0  0  0  0  0
   -0.2160   -0.0136    0.0003 C   0  0  0  0  0  0  0  0  0  0  0  0
   -2.4949    1.1740   -0.0032 C   0  0  0  0  0  0  0  0  0  0  0  0
    0.5537   -1.1869   -0.0015 C   0  0  0  0  0  0  0  0  0  0  0  0
    0.4508    1.2147    0.0018 C   0  0  0  0  0  0  0  0  0  0  0  0
    1.9048   -1.1506   -0.0017 N   0  0  0  0  0  0  0  0  0  0  0  0
    1.8405    1.2434    0.0015 C   0  0  0  0  0  0  0  0  0  0  0  0
    2.5464    0.0397   -0.0002 C   0  0  0  0  0  0  0  0  0  0  0  0
  1  2  2  0  0  0  0 
  1  3  1  0  0  0  0 
  1  4  1  0  0  0  0 
  5  3  1  0  0  0  0 
  3  6  2  0  0  0  0 
  5  7  2  0  0  0  0 
  6  8  1  0  0  0  0 
  9  7  1  0  0  0  0 
  8  9  2  0  0  0  0 
M  END
> <Name>
Ethanone, 1-(3-pyridinyl)-

> <Source>
DougDB3DMolFile

> <Tox>
3.378

> <CAS>
350-03-8

$$$$

  CDK

 20 20  0  0  0  0  0  0  0  0999 V2000
   -0.2770   -2.9071   -2.8946 S   0  0  0  0  0  0  0  0  0  0  0  0
    0.2671   -1.0490   -3.1296 P   0  0  0  0  0  0  0  0  0  0  0  0
   -0.8843    0.0037   -3.5707 O   0  0  0  0  0  0  0  0  0  0  0  0
    0.8734   -0.3132   -1.8093 O   0  0  0  0  0  0  0  0  0  0  0  0
    1.4387   -0.7462   -4.2172 O   0  0  0  0  0  0  0  0  0  0  0  0
   -1.7272   -0.1140   -4.6428 C   0  0  0  0  0  0  0  0  0  0  0  0
    0.0313   -0.0481   -0.6999 C   0  0  0  0  0  0  0  0  0  0  0  0
    2.6501   -1.4807   -4.1702 C   0  0  0  0  0  0  0  0  0  0  0  0
   -1.3050   -0.7925   -5.7816 C   0  0  0  0  0  0  0  0  0  0  0  0
   -2.9993    0.4462   -4.5847 C   0  0  0  0  0  0  0  0  0  0  0  0
   -2.1643   -0.9120   -6.8739 C   0  0  0  0  0  0  0  0  0  0  0  0
   -3.8585    0.3265   -5.6770 C   0  0  0  0  0  0  0  0  0  0  0  0
   -3.4410   -0.3525   -6.8215 C   0  0  0  0  0  0  0  0  0  0  0  0
   -1.6861   -1.6450   -8.0856 C   0  0  0  0  0  0  0  0  0  0  0  0
   -4.3335   -0.4614   -7.9237 N   0  0  0  0  0  0  0  0  0  0  0  0
   -0.4144   -2.1252   -7.9646 F   0  0  0  0  0  0  0  0  0  0  0  0
   -2.4509   -2.7301   -8.4014 F   0  0  0  0  0  0  0  0  0  0  0  0
   -1.6796   -0.8608   -9.2012 F   0  0  0  0  0  0  0  0  0  0  0  0
   -5.4716    0.0567   -7.8350 O   0  0  0  0  0  0  0  0  0  0  0  0
   -3.9553   -1.0719   -8.9512 O   0  0  0  0  0  0  0  0  0  0  0  0
  1  2  2  0  0  0  0 
  2  3  1  0  0  0  0 
  2  4  1  0  0  0  0 
  2  5  1  0  0  0  0 
  3  6  1  0  0  0  0 
  4  7  1  0  0  0  0 
  5  8  1  0  0  0  0 
  6  9  2  0  0  0  0 
  6 10  1  0  0  0  0 
 11  9  1  0  0  0  0 
 10 12  2  0  0  0  0 
 11 13  2  0  0  0  0 
 11 14  1  0  0  0  0 
 13 12  1  0  0  0  0 
 15 13  1  0  0  0  0 
 16 14  1  0  0  0  0 
 17 14  1  0  0  0  0 
 18 14  1  0  0  0  0 
 19 15  1  0  0  0  0 
 20 15  2  0  0  0  0 
M  CHG  1  15   1
M  CHG  1  19  -1
M  END
> <Name>
Phosphorothioic acid, O,O-dimethyl O-(4-nitro-3-(trifluoromethyl)phenyl) ester

> <Source>
Chemidplus3DMolFile

> <Tox>
3.122

> <CAS>
363-97-3

$$$$

  CDK

 20 20  0  0  0  0  0  0  0  0999 V2000
    0.1708    1.4807    0.5021 C   0  0  0  0  0  0  0  0  0  0  0  0
    1.2979    0.5398    0.2233 C   0  0  0  0  0  0  0  0  0  0  0  0
    0.3084    2.5305    1.1202 O   0  0  0  0  0  0  0  0  0  0  0  0
   -1.0897    1.1524   -0.0464 N   0  0  0  0  0  0  0  0  0  0  0  0
    1.1341   -0.8618    0.1492 C   0  0  0  0  0  0  0  0  0  0  0  0
    2.5757    1.0696    0.0559 C   0  0  0  0  0  0  0  0  0  0  0  0
   -2.3154    1.8426    0.4074 C   0  0  0  0  0  0  0  0  0  0  0  0
    2.2209   -1.7048   -0.0875 C   0  0  0  0  0  0  0  0  0  0  0  0
   -0.1645   -1.3038    0.3023 O   0  0  0  0  0  0  0  0  0  0  0  0
    3.6630    0.2372   -0.1850 C   0  0  0  0  0  0  0  0  0  0  0  0
   -3.5225    1.4603   -0.4506 C   0  0  0  0  0  0  0  0  0  0  0  0
    3.5008   -1.1553   -0.2535 C   0  0  0  0  0  0  0  0  0  0  0  0
   -0.3920   -2.6796    0.4856 C   0  0  0  0  0  0  0  0  0  0  0  0
    5.1884    0.9350   -0.3948 Cl  0  0  0  0  0  0  0  0  0  0  0  0
   -3.8569    0.0133   -0.3198 N   0  0  0  0  0  0  0  0  0  0  0  0
    4.6255   -2.0128   -0.3911 N   0  0  0  0  0  0  0  0  0  0  0  0
   -4.7717   -0.4937   -1.3761 C   0  0  0  0  0  0  0  0  0  0  0  0
   -4.2735   -0.3789    1.0597 C   0  0  0  0  0  0  0  0  0  0  0  0
   -6.1064    0.2154   -1.5099 C   0  0  0  0  0  0  0  0  0  0  0  0
   -4.1063   -1.8741    1.2528 C   0  0  0  0  0  0  0  0  0  0  0  0
  1  2  1  0  0  0  0 
  1  3  2  0  0  0  0 
  1  4  1  0  0  0  0 
  2  5  1  0  0  0  0 
  2  6  2  0  0  0  0 
  4  7  1  0  0  0  0 
  5  8  2  0  0  0  0 
  5  9  1  0  0  0  0 
 10  6  1  0  0  0  0 
  7 11  1  0  0  0  0 
  8 12  1  0  0  0  0 
  9 13  1  0  0  0  0 
 12 10  2  0  0  0  0 
 10 14  1  0  0  0  0 
 11 15  1  0  0  0  0 
 12 16  1  0  0  0  0 
 15 17  1  0  0  0  0 
 15 18  1  0  0  0  0 
 17 19  1  0  0  0  0 
 18 20  1  0  0  0  0 
M  END
> <Name>
Benzamide, 4-amino-5-chloro-N-(2-(diethylamino)ethyl)-2-methoxy- (9CI)

> <Source>
DougDB3DMolFile

> <Tox>
2.602

> <CAS>
364-62-5

$$$$

  CDK

 12 12  0  0  0  0  0  0  0  0999 V2000
    1.2127    3.4981    0.0000 C   0  0  0  0  0  0  0  0  0  0  0  0
    1.2127    2.0988    0.0000 C   0  0  0  0  0  0  0  0  0  0  0  0
    2.4253    4.1977    0.0000 C   0  0  0  0  0  0  0  0  0  0  0  0
    0.0000    4.1977    0.0000 N   0  0  0  0  0  0  0  0  0  0  0  0
    2.4253    1.3992    0.0000 C   0  0  0  0  0  0  0  0  0  0  0  0
    3.6380    3.4981    0.0000 C   0  0  0  0  0  0  0  0  0  0  0  0
    3.6380    2.0988    0.0000 C   0  0  0  0  0  0  0  0  0  0  0  0
    2.4253    0.0000    0.0000 N   0  0  0  0  0  0  0  0  0  0  0  0
    4.8506    4.1977    0.0000 C   0  0  0  0  0  0  0  0  0  0  0  0
    6.0633    3.4981    0.0000 F   0  0  0  0  0  0  0  0  0  0  0  0
    4.8506    5.5969    0.0000 F   0  0  0  0  0  0  0  0  0  0  0  0
    6.0633    4.8973    0.0000 F   0  0  0  0  0  0  0  0  0  0  0  0
  1  2  2  0  0  0  0 
  1  3  1  0  0  0  0 
  1  4  1  0  0  0  0 
  2  5  1  0  0  0  0 
  6  3  2  0  0  0  0 
  5  7  2  0  0  0  0 
  5  8  1  0  0  0  0 
  7  6  1  0  0  0  0 
  6  9  1  0  0  0  0 
  9 10  1  0  0  0  0 
  9 11  1  0  0  0  0 
  9 12  1  0  0  0  0 
M  END
> <Name>
Toluene-3,5-diamine, alpha,alpha,alpha-trifluoro- (8CI)

> <Source>
IndexNet2DMolFile

> <Tox>
2.666

> <CAS>
368-53-6

$$$$

  CDK

 26 25  0  0  0  0  0  0  0  0999 V2000
    0.0000    1.8794    0.0000 F   0  0  0  0  0  0  0  0  0  0  0  0
    0.5080    1.0159    0.0000 C   0  0  0  0  0  0  0  0  0  0  0  0
    0.0000    0.1524    0.0000 F   0  0  0  0  0  0  0  0  0  0  0  0
    1.5239    1.0159    0.0000 C   0  0  0  0  0  0  0  0  0  0  0  0
    1.5239    1.9810    0.0000 F   0  0  0  0  0  0  0  0  0  0  0  0
    1.5239    0.0000    0.0000 F   0  0  0  0  0  0  0  0  0  0  0  0
    2.5398    1.0159    0.0000 C   0  0  0  0  0  0  0  0  0  0  0  0
    2.5398    1.9810    0.0000 F   0  0  0  0  0  0  0  0  0  0  0  0
    2.5398    0.0000    0.0000 F   0  0  0  0  0  0  0  0  0  0  0  0
    3.5557    1.0159    0.0000 C   0  0  0  0  0  0  0  0  0  0  0  0
    3.5557    1.9810    0.0000 F   0  0  0  0  0  0  0  0  0  0  0  0
    3.5557    0.0000    0.0000 F   0  0  0  0  0  0  0  0  0  0  0  0
    4.5716    1.0159    0.0000 C   0  0  0  0  0  0  0  0  0  0  0  0
    4.5716    1.9810    0.0000 F   0  0  0  0  0  0  0  0  0  0  0  0
    4.5716    0.0000    0.0000 F   0  0  0  0  0  0  0  0  0  0  0  0
    5.5875    1.0159    0.0000 C   0  0  0  0  0  0  0  0  0  0  0  0
    5.5875    1.9810    0.0000 F   0  0  0  0  0  0  0  0  0  0  0  0
    5.5875    0.0000    0.0000 F   0  0  0  0  0  0  0  0  0  0  0  0
    6.6034    1.0159    0.0000 C   0  0  0  0  0  0  0  0  0  0  0  0
    6.6034    1.9810    0.0000 F   0  0  0  0  0  0  0  0  0  0  0  0
    6.6034    0.0000    0.0000 F   0  0  0  0  0  0  0  0  0  0  0  0
    7.6193    1.0159    0.0000 C   0  0  0  0  0  0  0  0  0  0  0  0
    7.6193    1.9810    0.0000 F   0  0  0  0  0  0  0  0  0  0  0  0
    7.6193    0.0000    0.0000 F   0  0  0  0  0  0  0  0  0  0  0  0
    8.6352    1.0159    0.0000 C   0  0  0  0  0  0  0  0  0  0  0  0
    9.1432    0.1524    0.0000 O   0  0  0  0  0  0  0  0  0  0  0  0
  1  2  1  0  0  0  0 
  2  3  1  0  0  0  0 
  2  4  1  0  0  0  0 
  4  5  1  0  0  0  0 
  4  6  1  0  0  0  0 
  4  7  1  0  0  0  0 
  7  8  1  0  0  0  0 
  7  9  1  0  0  0  0 
  7 10  1  0  0  0  0 
 10 11  1  0  0  0  0 
 10 12  1  0  0  0  0 
 10 13  1  0  0  0  0 
 13 14  1  0  0  0  0 
 13 15  1  0  0  0  0 
 13 16  1  0  0  0  0 
 16 17  1  0  0  0  0 
 16 18  1  0  0  0  0 
 16 19  1  0  0  0  0 
 19 20  1  0  0  0  0 
 19 21  1  0  0  0  0 
 19 22  1  0  0  0  0 
 22 23  1  0  0  0  0 
 22 24  1  0  0  0  0 
 22 25  1  0  0  0  0 
 25 26  1  0  0  0  0 
M  END
> <Name>
1-Nonanol, 2,2,3,3,4,4,5,5,6,6,7,7,8,8,9,9-hexadecafluoro-

> <Source>
NIST2DMolFile

> <Tox>
1.992

> <CAS>
376-18-1

$$$$

  CDK

 13 12  0  0  0  0  0  0  0  0999 V2000
    1.3081   -1.4115    0.0000 C   0  0  0  0  0  0  0  0  0  0  0  0
   -0.0919   -1.4115    0.0000 C   0  0  0  0  0  0  0  0  0  0  0  0
    2.7081   -1.4115    0.0000 N   0  0  0  0  0  0  0  0  0  0  0  0
    0.0667    0.4016    0.0000 C   0  0  0  0  0  0  0  0  0  0  0  0
   -0.0919   -2.8115    0.0000 F   0  0  0  0  0  0  0  0  0  0  0  0
   -1.4866   -1.5335    0.0000 F   0  0  0  0  0  0  0  0  0  0  0  0
   -1.6913    0.8726    0.0000 C   0  0  0  0  0  0  0  0  0  0  0  0
    0.3098    1.7803    0.0000 F   0  0  0  0  0  0  0  0  0  0  0  0
    1.4454    0.1585    0.0000 F   0  0  0  0  0  0  0  0  0  0  0  0
   -2.2829   -0.3962    0.0000 C   0  0  0  0  0  0  0  0  0  0  0  0
   -3.0068    1.3515    0.0000 F   0  0  0  0  0  0  0  0  0  0  0  0
   -1.2124    2.1882    0.0000 F   0  0  0  0  0  0  0  0  0  0  0  0
   -2.8746   -1.6650    0.0000 N   0  0  0  0  0  0  0  0  0  0  0  0
  2  1  1  0  0  0  0 
  1  3  3  0  0  0  0 
  4  2  1  0  0  0  0 
  2  5  1  0  0  0  0 
  2  6  1  0  0  0  0 
  7  4  1  0  0  0  0 
  4  8  1  0  0  0  0 
  4  9  1  0  0  0  0 
 10  7  1  0  0  0  0 
  7 11  1  0  0  0  0 
  7 12  1  0  0  0  0 
 10 13  3  0  0  0  0 
M  END
> <Name>
Pentanedinitrile, hexafluoro- (9CI)

> <Source>
IndexNet2DMolFile

> <Tox>
1.891

> <CAS>
376-89-6

$$$$

  CDK

 17 17  0  0  0  0  0  0  0  0999 V2000
    0.6632   -3.4543    0.0000 N   0  0  0  0  0  0  0  0  0  0  0  0
    0.0000   -4.6081    0.0000 O   0  0  0  0  0  0  0  0  0  0  0  0
    0.0000   -2.3006    0.0000 O   0  0  0  0  0  0  0  0  0  0  0  0
    1.9966   -3.4543    0.0000 C   0  0  0  0  0  0  0  0  0  0  0  0
    2.6598   -2.3006    0.0000 C   0  0  0  0  0  0  0  0  0  0  0  0
    2.6598   -4.6081    0.0000 C   0  0  0  0  0  0  0  0  0  0  0  0
    3.9863   -2.3006    0.0000 C   0  0  0  0  0  0  0  0  0  0  0  0
    3.9863   -4.6081    0.0000 C   0  0  0  0  0  0  0  0  0  0  0  0
    1.9966   -5.7549    0.0000 Cl  0  0  0  0  0  0  0  0  0  0  0  0
    4.6565   -3.4543    0.0000 C   0  0  0  0  0  0  0  0  0  0  0  0
    4.6565   -1.1538    0.0000 C   0  0  0  0  0  0  0  0  0  0  0  0
    4.6565   -5.7549    0.0000 N   0  0  0  0  0  0  0  0  0  0  0  0
    3.5027   -0.4836    0.0000 F   0  0  0  0  0  0  0  0  0  0  0  0
    5.3197   -0.0000    0.0000 F   0  0  0  0  0  0  0  0  0  0  0  0
    5.8033   -1.8170    0.0000 F   0  0  0  0  0  0  0  0  0  0  0  0
    5.9829   -5.7549    0.0000 O   0  0  0  0  0  0  0  0  0  0  0  0
    3.9863   -6.9087    0.0000 O   0  0  0  0  0  0  0  0  0  0  0  0
  1  2  2  0  0  0  0 
  1  3  1  0  0  0  0 
  1  4  1  0  0  0  0 
  4  5  2  0  0  0  0 
  4  6  1  0  0  0  0 
  5  7  1  0  0  0  0 
  8  6  2  0  0  0  0 
  6  9  1  0  0  0  0 
  7 10  2  0  0  0  0 
  7 11  1  0  0  0  0 
 10  8  1  0  0  0  0 
  8 12  1  0  0  0  0 
 11 13  1  0  0  0  0 
 11 14  1  0  0  0  0 
 11 15  1  0  0  0  0 
 12 16  2  0  0  0  0 
 12 17  1  0  0  0  0 
M  CHG  1   1   1
M  CHG  1   3  -1
M  CHG  1  12   1
M  CHG  1  17  -1
M  END
> <Name>
Toluene, 4-chloro-3,5-dinitro-alpha,alpha,alpha-trifluoro-

> <Source>
DSSTox2DMolFile

> <Tox>
2.464

> <CAS>
393-75-9

$$$$

  CDK

 19 21  0  0  0  0  0  0  0  0999 V2000
    6.9115   -0.6635    0.0000 N   0  0  0  0  0  0  0  0  0  0  0  0
    6.9115   -1.9905    0.0000 C   0  0  0  0  0  0  0  0  0  0  0  0
    5.7596   -2.6540    0.0000 C   0  0  0  0  0  0  0  0  0  0  0  0
    8.0635   -2.6540    0.0000 N   0  0  0  0  0  0  0  0  0  0  0  0
    5.7596   -3.9903    0.0000 C   0  0  0  0  0  0  0  0  0  0  0  0
    4.6077   -1.9905    0.0000 N   0  0  0  0  0  0  0  0  0  0  0  0
    8.0635   -3.9903    0.0000 C   0  0  0  0  0  0  0  0  0  0  0  0
    6.9115   -4.6538    0.0000 N   0  0  0  0  0  0  0  0  0  0  0  0
    4.6077   -4.6538    0.0000 N   0  0  0  0  0  0  0  0  0  0  0  0
    3.4558   -2.6540    0.0000 C   0  0  0  0  0  0  0  0  0  0  0  0
    9.2154   -4.6538    0.0000 N   0  0  0  0  0  0  0  0  0  0  0  0
    3.4558   -3.9903    0.0000 C   0  0  0  0  0  0  0  0  0  0  0  0
    2.3038   -1.9905    0.0000 C   0  0  0  0  0  0  0  0  0  0  0  0
    2.3038   -4.6538    0.0000 N   0  0  0  0  0  0  0  0  0  0  0  0
    1.1519   -2.6540    0.0000 C   0  0  0  0  0  0  0  0  0  0  0  0
    2.3038   -0.6635    0.0000 C   0  0  0  0  0  0  0  0  0  0  0  0
    0.0000   -1.9905    0.0000 C   0  0  0  0  0  0  0  0  0  0  0  0
    1.1519   -0.0000    0.0000 C   0  0  0  0  0  0  0  0  0  0  0  0
    0.0000   -0.6635    0.0000 C   0  0  0  0  0  0  0  0  0  0  0  0
  1  2  1  0  0  0  0 
  2  3  2  0  0  0  0 
  2  4  1  0  0  0  0 
  3  5  1  0  0  0  0 
  3  6  1  0  0  0  0 
  7  4  2  0  0  0  0 
  5  8  2  0  0  0  0 
  5  9  1  0  0  0  0 
 10  6  2  0  0  0  0 
  8  7  1  0  0  0  0 
  7 11  1  0  0  0  0 
  9 12  2  0  0  0  0 
 12 10  1  0  0  0  0 
 10 13  1  0  0  0  0 
 12 14  1  0  0  0  0 
 13 15  2  0  0  0  0 
 13 16  1  0  0  0  0 
 15 17  1  0  0  0  0 
 18 16  2  0  0  0  0 
 17 19  2  0  0  0  0 
 19 18  1  0  0  0  0 
M  END
> <Name>
Pteridine, 2,4,7-triamino-6-phenyl-

> <Source>
DSSTox2DMolFile

> <Tox>
2.802

> <CAS>
396-01-0

$$$$

  CDK

  3  3  0  0  0  0  0  0  0  0999 V2000
    0.0000    0.4435    0.0000 S   0  0  0  0  0  0  0  0  0  0  0  0
   -1.2790   -0.4607    0.0000 C   0  0  0  0  0  0  0  0  0  0  0  0
    1.2790   -0.4607    0.0000 C   0  0  0  0  0  0  0  0  0  0  0  0
  1  2  1  0  0  0  0 
  1  3  1  0  0  0  0 
  2  3  1  0  0  0  0 
M  END
> <Name>
Ethylene sulfide

> <Source>
DougDB3DMolFile

> <Tox>
2.529

> <CAS>
420-12-2

$$$$

  CDK

 21 23  0  0  0  0  0  0  0  0999 V2000
    8.6444   -3.4578    0.0000 C   0  0  0  0  0  0  0  0  0  0  0  0
    7.9788   -4.6075    0.0000 C   0  0  0  0  0  0  0  0  0  0  0  0
    7.9788   -2.2994    0.0000 C   0  0  0  0  0  0  0  0  0  0  0  0
    6.6476   -4.6075    0.0000 C   0  0  0  0  0  0  0  0  0  0  0  0
    6.6476   -2.2994    0.0000 C   0  0  0  0  0  0  0  0  0  0  0  0
    5.9819   -3.4578    0.0000 C   0  0  0  0  0  0  0  0  0  0  0  0
    5.9819   -1.1497    0.0000 O   0  0  0  0  0  0  0  0  0  0  0  0
    4.6507   -3.4578    0.0000 C   0  0  0  0  0  0  0  0  0  0  0  0
    4.6507   -1.1497    0.0000 C   0  0  0  0  0  0  0  0  0  0  0  0
    3.9937   -2.2994    0.0000 C   0  0  0  0  0  0  0  0  0  0  0  0
    3.9937   -4.6075    0.0000 O   0  0  0  0  0  0  0  0  0  0  0  0
    3.9937   -0.0000    0.0000 O   0  0  0  0  0  0  0  0  0  0  0  0
    2.6625   -2.2994    0.0000 C   0  0  0  0  0  0  0  0  0  0  0  0
    1.9969   -1.1497    0.0000 C   0  0  0  0  0  0  0  0  0  0  0  0
    1.9969   -3.4578    0.0000 C   0  0  0  0  0  0  0  0  0  0  0  0
    0.6656   -1.1497    0.0000 C   0  0  0  0  0  0  0  0  0  0  0  0
    2.6625   -4.6075    0.0000 C   0  0  0  0  0  0  0  0  0  0  0  0
    0.6656   -3.4578    0.0000 C   0  0  0  0  0  0  0  0  0  0  0  0
    1.9969   -5.7572    0.0000 C   0  0  0  0  0  0  0  0  0  0  0  0
    0.0000   -4.6075    0.0000 C   0  0  0  0  0  0  0  0  0  0  0  0
    0.6656   -5.7572    0.0000 C   0  0  0  0  0  0  0  0  0  0  0  0
  1  2  2  0  0  0  0 
  1  3  1  0  0  0  0 
  2  4  1  0  0  0  0 
  5  3  2  0  0  0  0 
  4  6  2  0  0  0  0 
  6  5  1  0  0  0  0 
  5  7  1  0  0  0  0 
  6  8  1  0  0  0  0 
  7  9  1  0  0  0  0 
 10  8  2  0  0  0  0 
  8 11  1  0  0  0  0 
  9 12  2  0  0  0  0 
  9 10  1  0  0  0  0 
 10 13  1  0  0  0  0 
 13 14  1  0  0  0  0 
 13 15  1  0  0  0  0 
 14 16  1  0  0  0  0 
 15 17  2  0  0  0  0 
 15 18  1  0  0  0  0 
 17 19  1  0  0  0  0 
 20 18  2  0  0  0  0 
 19 21  2  0  0  0  0 
 21 20  1  0  0  0  0 
M  END
> <Name>
2H-1-Benzopyran-2-one, 4-hydroxy-3-(1-phenylpropyl)-

> <Source>
DSSTox2DMolFile

> <Tox>
3.147

> <CAS>
435-97-2

$$$$

  CDK

  8  8  0  0  0  0  0  0  0  0999 V2000
    1.2650   -0.0768    0.0000 N   0  0  0  0  0  0  0  0  0  0  0  0
    2.0450   -1.1518    0.0000 C   0  0  0  0  0  0  0  0  0  0  0  0
    0.0000   -0.4850    0.0000 C   0  0  0  0  0  0  0  0  0  0  0  0
    3.3746   -1.1518    0.0000 C   0  0  0  0  0  0  0  0  0  0  0  0
    1.2650   -2.2269    0.0000 C   0  0  0  0  0  0  0  0  0  0  0  0
    0.0000   -1.8187    0.0000 S   0  0  0  0  0  0  0  0  0  0  0  0
    4.0415   -2.3036    0.0000 O   0  0  0  0  0  0  0  0  0  0  0  0
    4.0415   -0.0000    0.0000 O   0  0  0  0  0  0  0  0  0  0  0  0
  1  2  1  0  0  0  0 
  1  3  1  0  0  0  0 
  2  4  1  0  0  0  0 
  2  5  1  0  0  0  0 
  6  3  1  0  0  0  0 
  4  7  2  0  0  0  0 
  4  8  1  0  0  0  0 
  5  6  1  0  0  0  0 
M  END
> <Name>
4-Thiazolidinecarboxylic acid

> <Source>
DSSTox2DMolFile

> <Tox>
2.182

> <CAS>
444-27-9

$$$$

  CDK

 17 18  0  0  0  0  0  0  0  0999 V2000
    1.3916   -3.2004    0.0000 F   0  0  0  0  0  0  0  0  0  0  0  0
    0.5666   -3.2004    0.0000 C   0  0  0  0  0  0  0  0  0  0  0  0
    0.5666   -2.3754    0.0000 C   0  0  0  0  0  0  0  0  0  0  0  0
    1.2811   -1.9629    0.0000 O   0  0  0  0  0  0  0  0  0  0  0  0
   -0.1478   -1.9629    0.0000 N   0  0  0  0  0  0  0  0  0  0  0  0
   -0.1478   -1.1379    0.0000 C   0  0  0  0  0  0  0  0  0  0  0  0
    0.5666   -0.7254    0.0000 C   0  0  0  0  0  0  0  0  0  0  0  0
   -0.8623   -0.7254    0.0000 C   0  0  0  0  0  0  0  0  0  0  0  0
    0.5666    0.0996    0.0000 C   0  0  0  0  0  0  0  0  0  0  0  0
   -0.8623    0.0996    0.0000 C   0  0  0  0  0  0  0  0  0  0  0  0
   -0.1478    0.5121    0.0000 C   0  0  0  0  0  0  0  0  0  0  0  0
   -0.1478    1.3371    0.0000 C   0  0  0  0  0  0  0  0  0  0  0  0
    0.5666    1.7496    0.0000 C   0  0  0  0  0  0  0  0  0  0  0  0
   -0.8623    1.7496    0.0000 C   0  0  0  0  0  0  0  0  0  0  0  0
    0.5666    2.5746    0.0000 C   0  0  0  0  0  0  0  0  0  0  0  0
   -0.8623    2.5746    0.0000 C   0  0  0  0  0  0  0  0  0  0  0  0
   -0.1478    2.9871    0.0000 C   0  0  0  0  0  0  0  0  0  0  0  0
  1  2  1  0  0  0  0 
  2  3  1  0  0  0  0 
  3  4  2  0  0  0  0 
  3  5  1  0  0  0  0 
  5  6  1  0  0  0  0 
  6  7  1  0  0  0  0 
  6  8  2  0  0  0  0 
  7  9  2  0  0  0  0 
 10  8  1  0  0  0  0 
  9 11  1  0  0  0  0 
 11 10  2  0  0  0  0 
 11 12  1  0  0  0  0 
 12 13  1  0  0  0  0 
 12 14  2  0  0  0  0 
 13 15  2  0  0  0  0 
 16 14  1  0  0  0  0 
 15 17  1  0  0  0  0 
 17 16  2  0  0  0  0 
M  END
> <Name>
Acetanilide, 2-fluoro-4'-phenyl-

> <Source>
Smiles

> <Tox>
4.360

> <CAS>
450-55-5

$$$$

  CDK

 12 11  0  0  0  0  0  0  0  0999 V2000
    2.3018    1.0695    0.0190 C   0  0  0  0  0  0  0  0  0  0  0  0
    2.4486   -0.3729   -0.2409 C   0  0  0  0  0  0  0  0  0  0  0  0
    1.3348    1.8056   -0.0870 O   0  0  0  0  0  0  0  0  0  0  0  0
    3.4482    1.6813    0.4102 O   0  0  0  0  0  0  0  0  0  0  0  0
    1.5201   -1.3064    0.0160 C   0  0  0  0  0  0  0  0  0  0  0  0
    0.1853   -1.0358    0.6327 C   0  0  0  0  0  0  0  0  0  0  0  0
    1.7993   -2.7359   -0.2949 C   0  0  0  0  0  0  0  0  0  0  0  0
   -0.8892   -0.8663   -0.4360 C   0  0  0  0  0  0  0  0  0  0  0  0
   -2.2363   -0.7662    0.1851 C   0  0  0  0  0  0  0  0  0  0  0  0
   -3.0902    0.2475   -0.0102 C   0  0  0  0  0  0  0  0  0  0  0  0
   -4.4291    0.2590    0.6394 C   0  0  0  0  0  0  0  0  0  0  0  0
   -2.7934    1.4238   -0.8681 C   0  0  0  0  0  0  0  0  0  0  0  0
  1  2  1  0  0  0  0 
  1  3  2  0  0  0  0 
  1  4  1  0  0  0  0 
  2  5  2  0  0  0  0 
  5  6  1  0  0  0  0 
  5  7  1  0  0  0  0 
  6  8  1  0  0  0  0 
  8  9  1  0  0  0  0 
  9 10  2  0  0  0  0 
 10 11  1  0  0  0  0 
 10 12  1  0  0  0  0 
M  END
> <Name>
2,6-Octadienoic acid, 3,7-dimethyl-

> <Source>
DougDB3DMolFile

> <Tox>
1.658

> <CAS>
459-80-3

$$$$

  CDK

 12 12  0  0  0  0  0  0  0  0999 V2000
    2.3009   -3.1439    0.0000 C   0  0  0  0  0  0  0  0  0  0  0  0
    1.1539   -2.4806    0.0000 C   0  0  0  0  0  0  0  0  0  0  0  0
    3.4548   -2.4806    0.0000 C   0  0  0  0  0  0  0  0  0  0  0  0
    0.0000   -3.1439    0.0000 Cl  0  0  0  0  0  0  0  0  0  0  0  0
    1.1539   -1.1470    0.0000 C   0  0  0  0  0  0  0  0  0  0  0  0
    3.4548   -1.1470    0.0000 C   0  0  0  0  0  0  0  0  0  0  0  0
    2.3009   -0.4837    0.0000 C   0  0  0  0  0  0  0  0  0  0  0  0
    4.6088   -0.4837    0.0000 C   0  0  0  0  0  0  0  0  0  0  0  0
    5.7558   -1.1470    0.0000 C   0  0  0  0  0  0  0  0  0  0  0  0
    5.0924   -2.3009    0.0000 C   0  0  0  0  0  0  0  0  0  0  0  0
    6.4260   -0.0000    0.0000 C   0  0  0  0  0  0  0  0  0  0  0  0
    6.9097   -1.8172    0.0000 N   0  0  0  0  0  0  0  0  0  0  0  0
  1  2  2  0  0  0  0 
  1  3  1  0  0  0  0 
  2  4  1  0  0  0  0 
  2  5  1  0  0  0  0 
  6  3  2  0  0  0  0 
  5  7  2  0  0  0  0 
  7  6  1  0  0  0  0 
  6  8  1  0  0  0  0 
  8  9  1  0  0  0  0 
  9 10  1  0  0  0  0 
  9 11  1  0  0  0  0 
  9 12  1  0  0  0  0 
M  END
> <Name>
Benzeneethanamine, 4-chloro-alpha,alpha-dimethyl-

> <Source>
DSSTox2DMolFile

> <Tox>
2.866

> <CAS>
461-78-9

$$$$

  CDK

 38 43  0  0  0  0  0  0  0  0999 V2000
   11.5295   -6.7847    0.0000 C   0  0  0  0  0  0  0  0  0  0  0  0
   11.5295   -5.4839    0.0000 C   0  0  0  0  0  0  0  0  0  0  0  0
   10.3765   -7.4350    0.0000 C   0  0  0  0  0  0  0  0  0  0  0  0
   12.7563   -7.1985    0.0000 C   0  0  0  0  0  0  0  0  0  0  0  0
   11.5295   -8.0854    0.0000 O   0  0  0  0  0  0  0  0  0  0  0  0
   12.7563   -5.0700    0.0000 C   0  0  0  0  0  0  0  0  0  0  0  0
   10.3765   -4.8040    0.0000 C   0  0  0  0  0  0  0  0  0  0  0  0
   11.5295   -4.1684    0.0000 C   0  0  0  0  0  0  0  0  0  0  0  0
    9.1940   -6.7847    0.0000 C   0  0  0  0  0  0  0  0  0  0  0  0
   10.3765   -8.7506    0.0000 C   0  0  0  0  0  0  0  0  0  0  0  0
   13.5545   -6.1343    0.0000 C   0  0  0  0  0  0  0  0  0  0  0  0
   13.1702   -3.8284    0.0000 C   0  0  0  0  0  0  0  0  0  0  0  0
    9.1940   -5.4839    0.0000 C   0  0  0  0  0  0  0  0  0  0  0  0
    8.0706   -7.4055    0.0000 C   0  0  0  0  0  0  0  0  0  0  0  0
    9.1940   -9.3714    0.0000 C   0  0  0  0  0  0  0  0  0  0  0  0
   12.2242   -2.8972    0.0000 C   0  0  0  0  0  0  0  0  0  0  0  0
   14.4119   -3.4884    0.0000 C   0  0  0  0  0  0  0  0  0  0  0  0
    6.9620   -6.7847    0.0000 C   0  0  0  0  0  0  0  0  0  0  0  0
    8.0706   -6.1047    0.0000 C   0  0  0  0  0  0  0  0  0  0  0  0
    8.0706   -8.7654    0.0000 C   0  0  0  0  0  0  0  0  0  0  0  0
   12.5642   -1.6407    0.0000 O   0  0  0  0  0  0  0  0  0  0  0  0
   14.7814   -2.2172    0.0000 C   0  0  0  0  0  0  0  0  0  0  0  0
    5.8091   -7.4350    0.0000 C   0  0  0  0  0  0  0  0  0  0  0  0
    6.9620   -9.3714    0.0000 C   0  0  0  0  0  0  0  0  0  0  0  0
   13.8650   -1.2712    0.0000 C   0  0  0  0  0  0  0  0  0  0  0  0
    5.8091   -8.7506    0.0000 C   0  0  0  0  0  0  0  0  0  0  0  0
   14.2493   -0.0000    0.0000 O   0  0  0  0  0  0  0  0  0  0  0  0
    4.6414   -9.3862    0.0000 O   0  0  0  0  0  0  0  0  0  0  0  0
    3.4884   -8.7506    0.0000 C   0  0  0  0  0  0  0  0  0  0  0  0
    2.3798   -9.3862    0.0000 C   0  0  0  0  0  0  0  0  0  0  0  0
    3.4884   -7.4350    0.0000 O   0  0  0  0  0  0  0  0  0  0  0  0
    1.2269   -8.7506    0.0000 C   0  0  0  0  0  0  0  0  0  0  0  0
    2.3502  -10.8200    0.0000 O   0  0  0  0  0  0  0  0  0  0  0  0
    2.3798   -6.7551    0.0000 C   0  0  0  0  0  0  0  0  0  0  0  0
    1.2269   -7.4055    0.0000 C   0  0  0  0  0  0  0  0  0  0  0  0
    0.0000   -9.4305    0.0000 O   0  0  0  0  0  0  0  0  0  0  0  0
    2.3946   -5.3065    0.0000 C   0  0  0  0  0  0  0  0  0  0  0  0
    0.0148   -6.6812    0.0000 O   0  0  0  0  0  0  0  0  0  0  0  0
  1  2  1  0  0  0  0 
  1  3  1  0  0  0  0 
  1  4  1  0  0  0  0 
  1  5  1  1  0  0  0 
  2  6  1  0  0  0  0 
  2  7  1  0  0  0  0 
  2  8  1  1  0  0  0 
  3  9  1  0  0  0  0 
  3 10  1  0  0  0  0 
  4 11  1  0  0  0  0 
  6 12  1  1  0  0  0 
  6 11  1  0  0  0  0 
  7 13  1  0  0  0  0 
 14  9  1  0  0  0  0 
  9 13  1  0  0  0  0 
 10 15  1  0  0  0  0 
 12 16  2  0  0  0  0 
 12 17  1  0  0  0  0 
 14 18  1  0  0  0  0 
 14 19  1  1  0  0  0 
 14 20  1  0  0  0  0 
 20 15  1  0  0  0  0 
 16 21  1  0  0  0  0 
 17 22  2  0  0  0  0 
 18 23  1  0  0  0  0 
 20 24  2  0  0  0  0 
 25 21  1  0  0  0  0 
 25 22  1  0  0  0  0 
 26 23  1  0  0  0  0 
 24 26  1  0  0  0  0 
 25 27  2  0  0  0  0 
 26 28  1  1  0  0  0 
 29 28  1  1  0  0  0 
 29 30  1  0  0  0  0 
 29 31  1  0  0  0  0 
 30 32  1  0  0  0  0 
 30 33  1  6  0  0  0 
 31 34  1  0  0  0  0 
 32 35  1  0  0  0  0 
 32 36  1  6  0  0  0 
 34 35  1  0  0  0  0 
 34 37  1  6  0  0  0 
 35 38  1  1  0  0  0 
M  END
> <Name>
Bufa-4,20,22-trienolide, 3-((6-deoxy-alpha-L-mannopyranosyl)oxy)-14-hydroxy-, (3beta)-

> <Source>
DSSTox2DMolFile

> <Tox>
3.977

> <CAS>
466-06-8

$$$$

  CDK

 11 12  0  0  0  0  0  0  0  0999 V2000
    1.5616   -0.0000    0.0000 C   0  0  0  0  0  0  0  0  0  0  0  0
    1.9893   -0.4818    0.0000 C   0  0  0  0  0  0  0  0  0  0  0  0
    1.5616   -1.6114    0.0000 C   0  0  0  0  0  0  0  0  0  0  0  0
    1.9893   -2.2842    0.0000 C   0  0  0  0  0  0  0  0  0  0  0  0
    0.1703   -2.4213    0.0000 O   0  0  0  0  0  0  0  0  0  0  0  0
    3.1730   -2.1472    0.0000 C   0  0  0  0  0  0  0  0  0  0  0  0
    0.4818   -1.0300    0.0000 C   0  0  0  0  0  0  0  0  0  0  0  0
    1.0134   -2.9529    0.0000 C   0  0  0  0  0  0  0  0  0  0  0  0
    3.3308   -2.9529    0.0000 C   0  0  0  0  0  0  0  0  0  0  0  0
    0.0000   -4.0825    0.0000 C   0  0  0  0  0  0  0  0  0  0  0  0
    1.6322   -4.1531    0.0000 C   0  0  0  0  0  0  0  0  0  0  0  0
  1  2  1  0  0  0  0 
  1  3  1  0  0  0  0 
  4  2  1  0  0  0  0 
  5  3  1  0  0  0  0 
  3  6  1  0  0  0  0 
  3  7  1  0  0  0  0 
  8  4  1  0  0  0  0 
  4  9  1  0  0  0  0 
  5  8  1  0  0  0  0 
  6  9  1  0  0  0  0 
  8 10  1  0  0  0  0 
  8 11  1  0  0  0  0 
M  END
> <Name>
2-Oxabicyclo(2.2.2)octane, 1,3,3-trimethyl-

> <Source>
DSSTox2DMolFile

> <Tox>
1.794

> <CAS>
470-82-6

$$$$

  CDK

 20 20  0  0  0  0  0  0  0  0999 V2000
    5.7700   -3.3166    0.0000 P   0  0  0  0  0  0  0  0  0  0  0  0
    7.0967   -3.3166    0.0000 O   0  0  0  0  0  0  0  0  0  0  0  0
    5.7700   -4.6433    0.0000 O   0  0  0  0  0  0  0  0  0  0  0  0
    4.4434   -3.3166    0.0000 O   0  0  0  0  0  0  0  0  0  0  0  0
    5.7700   -1.9809    0.0000 O   0  0  0  0  0  0  0  0  0  0  0  0
    7.7600   -2.1626    0.0000 C   0  0  0  0  0  0  0  0  0  0  0  0
    4.6160   -5.3157    0.0000 C   0  0  0  0  0  0  0  0  0  0  0  0
    6.9240   -1.3266    0.0000 C   0  0  0  0  0  0  0  0  0  0  0  0
    9.0866   -2.1626    0.0000 C   0  0  0  0  0  0  0  0  0  0  0  0
    4.6160   -6.6514    0.0000 C   0  0  0  0  0  0  0  0  0  0  0  0
    3.4620   -4.6433    0.0000 C   0  0  0  0  0  0  0  0  0  0  0  0
    6.9240   -0.0000    0.0000 C   0  0  0  0  0  0  0  0  0  0  0  0
    3.4620   -7.3056    0.0000 Cl  0  0  0  0  0  0  0  0  0  0  0  0
    2.3080   -5.3157    0.0000 C   0  0  0  0  0  0  0  0  0  0  0  0
    3.4620   -3.3166    0.0000 C   0  0  0  0  0  0  0  0  0  0  0  0
    1.1540   -4.6433    0.0000 C   0  0  0  0  0  0  0  0  0  0  0  0
    2.3080   -6.6514    0.0000 Cl  0  0  0  0  0  0  0  0  0  0  0  0
    2.3080   -2.6624    0.0000 C   0  0  0  0  0  0  0  0  0  0  0  0
    1.1540   -3.3166    0.0000 C   0  0  0  0  0  0  0  0  0  0  0  0
    0.0000   -2.6624    0.0000 Cl  0  0  0  0  0  0  0  0  0  0  0  0
  1  2  1  0  0  0  0 
  1  3  1  0  0  0  0 
  1  4  2  0  0  0  0 
  1  5  1  0  0  0  0 
  2  6  1  0  0  0  0 
  3  7  1  0  0  0  0 
  5  8  1  0  0  0  0 
  6  9  1  0  0  0  0 
  7 10  2  0  0  0  0 
  7 11  1  0  0  0  0 
  8 12  1  0  0  0  0 
 10 13  1  0  0  0  0 
 11 14  2  0  0  0  0 
 11 15  1  0  0  0  0 
 14 16  1  0  0  0  0 
 14 17  1  0  0  0  0 
 15 18  2  0  0  0  0 
 16 19  2  0  0  0  0 
 18 19  1  0  0  0  0 
 19 20  1  0  0  0  0 
M  END
> <Name>
Phosphoric acid, 2-chloro-1-(2,4-dichlorophenyl)ethenyl diethyl ester (9CI)

> <Source>
DSSTox2DMolFile

> <Tox>
4.556

> <CAS>
470-90-6

$$$$

  CDK

 10 10  0  0  0  0  0  0  0  0999 V2000
   -0.4431    1.4800   -0.1770 C   0  0  0  0  0  0  0  0  0  0  0  0
   -1.6240    0.5348   -0.1691 C   0  0  0  0  0  0  0  0  0  0  0  0
    0.8598    0.9148   -0.6915 C   0  0  0  0  0  0  0  0  0  0  0  0
   -0.5502    2.6376    0.1818 O   0  0  0  0  0  0  0  0  0  0  0  0
   -1.2424   -0.8963    0.0010 C   0  0  0  0  0  0  0  0  0  0  0  0
    1.2165   -0.4070    0.0008 C   0  0  0  0  0  0  0  0  0  0  0  0
    0.0251   -1.3167    0.0748 C   0  0  0  0  0  0  0  0  0  0  0  0
   -2.3844   -1.8459    0.0887 C   0  0  0  0  0  0  0  0  0  0  0  0
    1.7117   -0.1390    1.4234 C   0  0  0  0  0  0  0  0  0  0  0  0
    2.3239   -1.0966   -0.7981 C   0  0  0  0  0  0  0  0  0  0  0  0
  1  2  1  0  0  0  0 
  1  3  1  0  0  0  0 
  1  4  2  0  0  0  0 
  2  5  1  0  0  0  0 
  6  3  1  0  0  0  0 
  5  7  2  0  0  0  0 
  5  8  1  0  0  0  0 
  7  6  1  0  0  0  0 
  6  9  1  0  0  0  0 
  6 10  1  0  0  0  0 
M  END
> <Name>
3-Cyclohexen-1-one, 3,5,5-trimethyl-

> <Source>
DougDB3DMolFile

> <Tox>
1.671

> <CAS>
471-01-2

$$$$

  CDK

 26 29  0  0  0  0  0  0  0  0999 V2000
    6.9400   -4.5405    0.0000 C   0  0  0  0  0  0  0  0  0  0  0  0
    5.7679   -3.8761    0.0000 C   0  0  0  0  0  0  0  0  0  0  0  0
    6.9400   -5.8602    0.0000 C   0  0  0  0  0  0  0  0  0  0  0  0
    8.0844   -3.8761    0.0000 C   0  0  0  0  0  0  0  0  0  0  0  0
    4.6236   -4.5498    0.0000 C   0  0  0  0  0  0  0  0  0  0  0  0
    5.7679   -2.5287    0.0000 C   0  0  0  0  0  0  0  0  0  0  0  0
    5.7956   -6.5247    0.0000 C   0  0  0  0  0  0  0  0  0  0  0  0
    8.0844   -6.5247    0.0000 N   0  0  0  0  0  0  0  0  0  0  0  0
    8.0844   -2.5564    0.0000 C   0  0  0  0  0  0  0  0  0  0  0  0
    9.2287   -4.5405    0.0000 C   0  0  0  0  0  0  0  0  0  0  0  0
    3.4792   -3.8853    0.0000 C   0  0  0  0  0  0  0  0  0  0  0  0
    4.6236   -5.8879    0.0000 C   0  0  0  0  0  0  0  0  0  0  0  0
    4.6236   -1.8365    0.0000 O   0  0  0  0  0  0  0  0  0  0  0  0
    6.9400   -1.8642    0.0000 C   0  0  0  0  0  0  0  0  0  0  0  0
    8.0844   -7.8813    0.0000 C   0  0  0  0  0  0  0  0  0  0  0  0
    9.2287   -5.8879    0.0000 C   0  0  0  0  0  0  0  0  0  0  0  0
    2.3072   -4.5498    0.0000 C   0  0  0  0  0  0  0  0  0  0  0  0
    3.4792   -6.5524    0.0000 C   0  0  0  0  0  0  0  0  0  0  0  0
    4.6328   -0.4799    0.0000 C   0  0  0  0  0  0  0  0  0  0  0  0
    6.9400   -0.5260    0.0000 O   0  0  0  0  0  0  0  0  0  0  0  0
    1.1444   -3.8761    0.0000 O   0  0  0  0  0  0  0  0  0  0  0  0
    2.3072   -5.8879    0.0000 C   0  0  0  0  0  0  0  0  0  0  0  0
    8.0474   -0.0000    0.0000 C   0  0  0  0  0  0  0  0  0  0  0  0
    1.1444   -2.5564    0.0000 C   0  0  0  0  0  0  0  0  0  0  0  0
    1.1444   -6.5524    0.0000 O   0  0  0  0  0  0  0  0  0  0  0  0
    0.0000   -5.9248    0.0000 C   0  0  0  0  0  0  0  0  0  0  0  0
  1  2  2  0  0  0  0 
  1  3  1  0  0  0  0 
  1  4  1  0  0  0  0 
  2  5  1  0  0  0  0 
  2  6  1  0  0  0  0 
  3  7  1  0  0  0  0 
  3  8  1  0  0  0  0 
  4  9  2  0  0  0  0 
  4 10  1  0  0  0  0 
  5 11  1  0  0  0  0 
  5 12  2  0  0  0  0 
  6 13  1  0  0  0  0 
  6 14  2  0  0  0  0 
 12  7  1  0  0  0  0 
  8 15  1  0  0  0  0 
  8 16  1  0  0  0  0 
 14  9  1  0  0  0  0 
 10 16  1  0  0  0  0 
 11 17  2  0  0  0  0 
 12 18  1  0  0  0  0 
 13 19  1  0  0  0  0 
 14 20  1  0  0  0  0 
 17 21  1  0  0  0  0 
 17 22  1  0  0  0  0 
 18 22  2  0  0  0  0 
 20 23  1  0  0  0  0 
 21 24  1  0  0  0  0 
 22 25  1  0  0  0  0 
 25 26  1  0  0  0  0 
M  END
> <Name>
4H-Dibenzo(de,g)quinoline, 5,6,6a,7-tetrahydro-1,2,9,10-tetramethoxy-6-methyl-, (S)- (9CI)

> <Source>
DSSTox2DMolFile

> <Tox>
2.814

> <CAS>
475-81-0

$$$$

  CDK

 22 25  0  0  0  0  0  0  0  0999 V2000
   -0.8902    1.6779    0.0000 O   0  0  0  0  0  0  0  0  0  0  0  0
   -0.8902    0.8529    0.0000 C   0  0  0  0  0  0  0  0  0  0  0  0
   -0.1757    2.0904    0.0000 C   0  0  0  0  0  0  0  0  0  0  0  0
   -0.1757    0.4404    0.0000 C   0  0  0  0  0  0  0  0  0  0  0  0
   -1.6047    0.4404    0.0000 C   0  0  0  0  0  0  0  0  0  0  0  0
   -0.1757   -0.3846    0.0000 C   0  0  0  0  0  0  0  0  0  0  0  0
    0.5387    0.8529    0.0000 C   0  0  0  0  0  0  0  0  0  0  0  0
   -1.6047   -0.3846    0.0000 C   0  0  0  0  0  0  0  0  0  0  0  0
   -2.3192    0.8529    0.0000 O   0  0  0  0  0  0  0  0  0  0  0  0
   -0.8902   -0.7971    0.0000 C   0  0  0  0  0  0  0  0  0  0  0  0
    0.5387   -0.7971    0.0000 C   0  0  0  0  0  0  0  0  0  0  0  0
    1.2532    0.4404    0.0000 C   0  0  0  0  0  0  0  0  0  0  0  0
    0.5387    1.6779    0.0000 C   0  0  0  0  0  0  0  0  0  0  0  0
   -3.0336    0.4404    0.0000 C   0  0  0  0  0  0  0  0  0  0  0  0
   -0.8902   -1.6221    0.0000 C   0  0  0  0  0  0  0  0  0  0  0  0
    0.5387   -1.6221    0.0000 N   0  0  0  0  0  0  0  0  0  0  0  0
    1.2532   -0.3846    0.0000 C   0  0  0  0  0  0  0  0  0  0  0  0
    1.9677    0.8529    0.0000 C   0  0  0  0  0  0  0  0  0  0  0  0
    1.2532    2.0904    0.0000 C   0  0  0  0  0  0  0  0  0  0  0  0
   -0.1757   -2.0346    0.0000 C   0  0  0  0  0  0  0  0  0  0  0  0
    1.2532   -2.0346    0.0000 C   0  0  0  0  0  0  0  0  0  0  0  0
    1.9677    1.6779    0.0000 C   0  0  0  0  0  0  0  0  0  0  0  0
  1  2  1  0  0  0  0 
  1  3  1  0  0  0  0 
  2  4  1  0  0  0  0 
  2  5  2  0  0  0  0 
  4  6  2  0  0  0  0 
  4  7  1  0  0  0  0 
  8  5  1  0  0  0  0 
  5  9  1  0  0  0  0 
  6 10  1  0  0  0  0 
  6 11  1  0  0  0  0 
 12  7  2  0  0  0  0 
 13  7  1  0  0  0  0 
 10  8  2  0  0  0  0 
  9 14  1  0  0  0  0 
 10 15  1  0  0  0  0 
 16 11  1  0  0  0  0 
 11 17  1  0  0  0  0 
 17 12  1  0  0  0  0 
 12 18  1  0  0  0  0 
 19 13  2  0  0  0  0 
 15 20  1  0  0  0  0 
 20 16  1  0  0  0  0 
 16 21  1  0  0  0  0 
 18 22  2  0  0  0  0 
 22 19  1  0  0  0  0 
M  END
> <Name>
4H-Dibenzo(de,g)quinoline, 5,6,6a,7-tetrahydro-1,2-dimethoxy-6-methyl-, (R)- (9CI)

> <Source>
Smiles

> <Tox>
3.023

> <CAS>
475-83-2

$$$$

  CDK

 24 26  0  0  0  0  0  0  0  0999 V2000
    0.9137    1.5735    0.0000 C   0  0  0  0  0  0  0  0  0  0  0  0
    0.9137    2.4872    0.0000 C   0  0  0  0  0  0  0  0  0  0  0  0
    1.6243    0.9137    0.0000 C   0  0  0  0  0  0  0  0  0  0  0  0
    0.0508    1.2182    0.0000 C   0  0  0  0  0  0  0  0  0  0  0  0
    1.6243    3.1470    0.0000 C   0  0  0  0  0  0  0  0  0  0  0  0
    0.5583    3.4008    0.0000 O   0  0  0  0  0  0  0  0  0  0  0  0
    0.0000    2.2334    0.0000 C   0  0  0  0  0  0  0  0  0  0  0  0
    2.5379    0.9137    0.0000 C   0  0  0  0  0  0  0  0  0  0  0  0
    2.5379    3.1470    0.0000 O   0  0  0  0  0  0  0  0  0  0  0  0
    1.3197    4.0607    0.0000 O   0  0  0  0  0  0  0  0  0  0  0  0
    3.1978    1.5735    0.0000 C   0  0  0  0  0  0  0  0  0  0  0  0
    2.8425    0.0000    0.0000 C   0  0  0  0  0  0  0  0  0  0  0  0
    3.1978    2.4872    0.0000 C   0  0  0  0  0  0  0  0  0  0  0  0
    4.0099    1.1167    0.0000 O   0  0  0  0  0  0  0  0  0  0  0  0
    3.1978    0.6599    0.0000 O   0  0  0  0  0  0  0  0  0  0  0  0
    3.7562    0.0000    0.0000 C   0  0  0  0  0  0  0  0  0  0  0  0
    4.0099    2.9948    0.0000 C   0  0  0  0  0  0  0  0  0  0  0  0
    4.8728    1.5735    0.0000 C   0  0  0  0  0  0  0  0  0  0  0  0
    4.8728    2.4872    0.0000 C   0  0  0  0  0  0  0  0  0  0  0  0
    4.0099    3.9592    0.0000 C   0  0  0  0  0  0  0  0  0  0  0  0
    6.4971    1.5735    0.0000 C   0  0  0  0  0  0  0  0  0  0  0  0
    5.6850    2.9948    0.0000 N   0  0  0  0  0  0  0  0  0  0  0  0
    5.6850    3.9592    0.0000 C   0  0  0  0  0  0  0  0  0  0  0  0
    6.4971    2.4872    0.0000 C   0  0  0  0  0  0  0  0  0  0  0  0
  1  2  1  0  0  0  0 
  3  1  1  0  0  0  0 
  1  4  1  0  0  0  0 
  2  5  1  0  0  0  0 
  2  6  1  0  0  0  0 
  2  7  1  0  0  0  0 
  8  3  1  0  0  0  0 
  5  9  1  0  0  0  0 
  5 10  2  0  0  0  0 
 11  8  1  0  0  0  0 
  8 12  2  0  0  0  0 
  9 13  1  0  0  0  0 
 14 11  1  0  0  0  0 
 11 15  2  0  0  0  0 
 12 16  1  0  0  0  0 
 13 17  1  0  0  0  0 
 18 14  1  0  0  0  0 
 19 17  1  0  0  0  0 
 17 20  1  0  0  0  0 
 18 19  1  0  0  0  0 
 21 18  1  0  0  0  0 
 19 22  1  0  0  0  0 
 20 23  1  0  0  0  0 
 24 21  1  0  0  0  0 
 23 22  1  0  0  0  0 
 22 24  1  0  0  0  0 
M  END
> <Name>
Platyphylline

> <Source>
NIST2DMolFile

> <Tox>
2.037

> <CAS>
480-78-4

$$$$

  CDK

 13 14  0  0  0  0  0  0  0  0999 V2000
    2.2945   -3.3380    0.0000 C   0  0  0  0  0  0  0  0  0  0  0  0
    2.2945   -2.0017    0.0000 C   0  0  0  0  0  0  0  0  0  0  0  0
    3.4498   -3.9928    0.0000 C   0  0  0  0  0  0  0  0  0  0  0  0
    1.1393   -3.9928    0.0000 C   0  0  0  0  0  0  0  0  0  0  0  0
    3.4498   -1.3309    0.0000 C   0  0  0  0  0  0  0  0  0  0  0  0
    1.1393   -1.3309    0.0000 C   0  0  0  0  0  0  0  0  0  0  0  0
    4.5997   -3.3380    0.0000 C   0  0  0  0  0  0  0  0  0  0  0  0
    0.0000   -3.3380    0.0000 C   0  0  0  0  0  0  0  0  0  0  0  0
    1.1393   -5.3238    0.0000 O   0  0  0  0  0  0  0  0  0  0  0  0
    4.5997   -2.0017    0.0000 C   0  0  0  0  0  0  0  0  0  0  0  0
    3.4498   -0.0000    0.0000 O   0  0  0  0  0  0  0  0  0  0  0  0
    0.0000   -2.0017    0.0000 C   0  0  0  0  0  0  0  0  0  0  0  0
    1.1393   -0.0000    0.0000 O   0  0  0  0  0  0  0  0  0  0  0  0
  1  2  2  0  0  0  0 
  1  3  1  0  0  0  0 
  1  4  1  0  0  0  0 
  2  5  1  0  0  0  0 
  2  6  1  0  0  0  0 
  3  7  2  0  0  0  0 
  4  8  1  0  0  0  0 
  4  9  2  0  0  0  0 
  5 10  2  0  0  0  0 
  5 11  1  0  0  0  0 
  6 12  1  0  0  0  0 
  6 13  2  0  0  0  0 
 10  7  1  0  0  0  0 
  8 12  2  0  0  0  0 
M  END
> <Name>
1,4-Naphthoquinone, 5-hydroxy- (8CI)

> <Source>
DSSTox2DMolFile

> <Tox>
3.192

> <CAS>
481-39-0

$$$$

  CDK

 14 15  0  0  0  0  0  0  0  0999 V2000
    2.6066    4.0101    0.0000 O   0  0  0  0  0  0  0  0  0  0  0  0
    2.6066    3.0076    0.0000 C   0  0  0  0  0  0  0  0  0  0  0  0
    1.7043    2.5063    0.0000 C   0  0  0  0  0  0  0  0  0  0  0  0
    3.4587    2.5063    0.0000 C   0  0  0  0  0  0  0  0  0  0  0  0
    1.7043    1.5038    0.0000 C   0  0  0  0  0  0  0  0  0  0  0  0
    0.8521    3.0076    0.0000 C   0  0  0  0  0  0  0  0  0  0  0  0
    4.3109    3.0076    0.0000 C   0  0  0  0  0  0  0  0  0  0  0  0
    3.4587    1.5038    0.0000 C   0  0  0  0  0  0  0  0  0  0  0  0
    2.6066    1.0025    0.0000 C   0  0  0  0  0  0  0  0  0  0  0  0
    0.8521    1.0025    0.0000 C   0  0  0  0  0  0  0  0  0  0  0  0
    0.0000    2.5063    0.0000 C   0  0  0  0  0  0  0  0  0  0  0  0
    2.6066    0.0000    0.0000 O   0  0  0  0  0  0  0  0  0  0  0  0
    0.8521    0.0000    0.0000 O   0  0  0  0  0  0  0  0  0  0  0  0
    0.0000    1.5038    0.0000 C   0  0  0  0  0  0  0  0  0  0  0  0
  1  2  2  0  0  0  0 
  3  2  1  0  0  0  0 
  2  4  1  0  0  0  0 
  3  5  2  0  0  0  0 
  6  3  1  0  0  0  0 
  4  7  1  0  0  0  0 
  4  8  2  0  0  0  0 
  9  5  1  0  0  0  0 
  5 10  1  0  0  0  0 
 11  6  2  0  0  0  0 
  8  9  1  0  0  0  0 
  9 12  2  0  0  0  0 
 10 13  1  0  0  0  0 
 10 14  2  0  0  0  0 
 14 11  1  0  0  0  0 
M  END
> <Name>
1,4-Naphthalenedione, 5-hydroxy-2-methyl- (9CI)

> <Source>
NIST2DMolFile

> <Tox>
3.462

> <CAS>
481-42-5

$$$$

  CDK

 23 23  0  0  0  0  0  0  0  0999 V2000
   -0.0667    0.0333    0.2721 C   0  0  0  0  0  0  0  0  0  0  0  0
   -0.9066   -1.0605   -0.0029 C   0  0  0  0  0  0  0  0  0  0  0  0
   -0.5912    1.3422    0.3114 C   0  0  0  0  0  0  0  0  0  0  0  0
    1.2465   -0.1502    0.6708 O   0  0  0  0  0  0  0  0  0  0  0  0
   -2.2570   -0.8206   -0.2555 C   0  0  0  0  0  0  0  0  0  0  0  0
   -0.4114   -2.4851   -0.0399 C   0  0  0  0  0  0  0  0  0  0  0  0
   -1.9439    1.5595    0.0498 C   0  0  0  0  0  0  0  0  0  0  0  0
    0.2671    2.5325    0.6567 N   0  0  0  0  0  0  0  0  0  0  0  0
    2.2468   -0.2894   -0.2916 C   0  0  0  0  0  0  0  0  0  0  0  0
   -2.7763    0.4769   -0.2438 C   0  0  0  0  0  0  0  0  0  0  0  0
   -0.3211   -2.9529   -1.4875 C   0  0  0  0  0  0  0  0  0  0  0  0
   -1.3335   -3.4135    0.7583 C   0  0  0  0  0  0  0  0  0  0  0  0
   -0.1173    3.2806    1.5298 O   0  0  0  0  0  0  0  0  0  0  0  0
    1.2985    2.7233    0.0502 O   0  0  0  0  0  0  0  0  0  0  0  0
    3.5617   -0.4427    0.3475 C   0  0  0  0  0  0  0  0  0  0  0  0
    1.9162   -0.2869   -1.4553 O   0  0  0  0  0  0  0  0  0  0  0  0
   -4.2320    0.7029   -0.5372 N   0  0  0  0  0  0  0  0  0  0  0  0
   -1.2010   -3.2146    2.2506 C   0  0  0  0  0  0  0  0  0  0  0  0
    4.7222   -0.0519   -0.2075 C   0  0  0  0  0  0  0  0  0  0  0  0
   -4.6359    1.8376   -0.6839 O   0  0  0  0  0  0  0  0  0  0  0  0
   -4.9724   -0.2553   -0.6233 O   0  0  0  0  0  0  0  0  0  0  0  0
    4.8411    0.5924   -1.5391 C   0  0  0  0  0  0  0  0  0  0  0  0
    6.0011   -0.2524    0.5259 C   0  0  0  0  0  0  0  0  0  0  0  0
  1  2  1  0  0  0  0 
  1  3  2  0  0  0  0 
  1  4  1  0  0  0  0 
  2  5  2  0  0  0  0 
  2  6  1  0  0  0  0 
  3  7  1  0  0  0  0 
  3  8  1  0  0  0  0 
  4  9  1  0  0  0  0 
  5 10  1  0  0  0  0 
  6 11  1  0  0  0  0 
  6 12  1  0  0  0  0 
  7 10  2  0  0  0  0 
  8 13  2  0  0  0  0 
  8 14  1  0  0  0  0 
  9 15  1  0  0  0  0 
  9 16  2  0  0  0  0 
 10 17  1  0  0  0  0 
 12 18  1  0  0  0  0 
 15 19  2  0  0  0  0 
 17 20  2  0  0  0  0 
 17 21  1  0  0  0  0 
 19 22  1  0  0  0  0 
 19 23  1  0  0  0  0 
M  CHG  1   8   1
M  CHG  1  14  -1
M  CHG  1  17   1
M  CHG  1  21  -1
M  END
> <Name>
2-Butenoic acid, 3-methyl-, 2-(1-methylpropyl)-4,6-dinitrophenyl ester (9CI)

> <Source>
DougDB3DMolFile

> <Tox>
3.745

> <CAS>
485-31-4

$$$$

  CDK

 18 19  0  0  0  0  0  0  0  0999 V2000
    3.9655    1.5499    0.0000 C   0  0  0  0  0  0  0  0  0  0  0  0
    2.7531    0.8499    0.0000 N   0  0  0  0  0  0  0  0  0  0  0  0
    3.9655    2.9499    0.0000 C   0  0  0  0  0  0  0  0  0  0  0  0
    5.1780    0.8499    0.0000 C   0  0  0  0  0  0  0  0  0  0  0  0
    1.5407    1.5499    0.0000 N   0  0  0  0  0  0  0  0  0  0  0  0
    5.1780    3.6499    0.0000 C   0  0  0  0  0  0  0  0  0  0  0  0
    6.3904    1.5499    0.0000 C   0  0  0  0  0  0  0  0  0  0  0  0
    0.3282    0.8499    0.0000 C   0  0  0  0  0  0  0  0  0  0  0  0
    6.3904    2.9499    0.0000 C   0  0  0  0  0  0  0  0  0  0  0  0
   -0.8842    1.5499    0.0000 C   0  0  0  0  0  0  0  0  0  0  0  0
    0.3282   -0.5501    0.0000 O   0  0  0  0  0  0  0  0  0  0  0  0
    7.6029    3.6499    0.0000 N   0  0  0  0  0  0  0  0  0  0  0  0
   -2.0966    0.8499    0.0000 C   0  0  0  0  0  0  0  0  0  0  0  0
   -0.8842    2.9499    0.0000 C   0  0  0  0  0  0  0  0  0  0  0  0
    8.8153    2.9499    0.0000 O   0  0  0  0  0  0  0  0  0  0  0  0
   -3.3091    1.5499    0.0000 C   0  0  0  0  0  0  0  0  0  0  0  0
   -2.0966    3.6499    0.0000 C   0  0  0  0  0  0  0  0  0  0  0  0
   -3.3091    2.9499    0.0000 C   0  0  0  0  0  0  0  0  0  0  0  0
  1  2  2  0  0  0  0 
  3  1  1  0  0  0  0 
  4  1  1  0  0  0  0 
  5  2  1  0  0  0  0 
  6  3  2  0  0  0  0 
  4  7  2  0  0  0  0 
  5  8  1  0  0  0  0 
  9  6  1  0  0  0  0 
  7  9  1  0  0  0  0 
 10  8  1  0  0  0  0 
  8 11  2  0  0  0  0 
  9 12  2  0  0  0  0 
 13 10  1  0  0  0  0 
 14 10  2  0  0  0  0 
 15 12  1  0  0  0  0 
 16 13  2  0  0  0  0 
 14 17  1  0  0  0  0 
 18 16  1  0  0  0  0 
 17 18  2  0  0  0  0 
M  END
> <Name>
Benzoic acid, (4-(hydroxyimino)-2,5-cyclohexadien-1-ylidene)hydrazide

> <Source>
IndexNet2DMolFile

> <Tox>
3.382

> <CAS>
495-73-8

$$$$

  CDK

 10 10  0  0  0  0  0  0  0  0999 V2000
    1.0532    2.9826    2.1052 C   0  0  0  0  0  0  0  0  0  0  0  0
    1.7491    2.0592    1.1125 C   0  0  0  0  0  0  0  0  0  0  0  0
    1.1017    0.6856    1.1304 C   0  0  0  0  0  0  0  0  0  0  0  0
    3.2293    2.0585    1.3888 C   0  0  0  0  0  0  0  0  0  0  0  0
    3.9023    3.3641    1.0998 C   0  0  0  0  0  0  0  0  0  0  0  0
    3.9075    1.0024    1.8518 C   0  0  0  0  0  0  0  0  0  0  0  0
    5.2717    3.4815    1.7461 C   0  0  0  0  0  0  0  0  0  0  0  0
    5.3666    1.0184    2.1341 C   0  0  0  0  0  0  0  0  0  0  0  0
    6.0860    2.2132    1.5105 C   0  0  0  0  0  0  0  0  0  0  0  0
    7.4859    2.3528    2.0813 C   0  0  0  0  0  0  0  0  0  0  0  0
  1  2  1  0  0  0  0 
  2  3  1  0  0  0  0 
  2  4  1  0  0  0  0 
  4  5  1  0  0  0  0 
  6  4  2  0  0  0  0 
  5  7  1  0  0  0  0 
  8  6  1  0  0  0  0 
  7  9  1  0  0  0  0 
  9  8  1  0  0  0  0 
  9 10  1  0  0  0  0 
M  END
> <Name>
Cyclohexene, 4-methyl-1-(1-methylethyl)-

> <Source>
NIST3DMolFile

> <Tox>
0.923

> <CAS>
500-00-5

$$$$

  CDK

 11 11  0  0  0  0  0  0  0  0999 V2000
    5.7556   -1.3303    0.0000 C   0  0  0  0  0  0  0  0  0  0  0  0
    5.7556   -0.0000    0.0000 O   0  0  0  0  0  0  0  0  0  0  0  0
    4.6183   -1.9990    0.0000 O   0  0  0  0  0  0  0  0  0  0  0  0
    6.8929   -1.9990    0.0000 Cl  0  0  0  0  0  0  0  0  0  0  0  0
    3.4465   -1.3303    0.0000 C   0  0  0  0  0  0  0  0  0  0  0  0
    2.2953   -1.9990    0.0000 C   0  0  0  0  0  0  0  0  0  0  0  0
    1.1718   -1.3303    0.0000 C   0  0  0  0  0  0  0  0  0  0  0  0
    2.2953   -3.3293    0.0000 C   0  0  0  0  0  0  0  0  0  0  0  0
    0.0000   -1.9990    0.0000 C   0  0  0  0  0  0  0  0  0  0  0  0
    1.1373   -4.0048    0.0000 C   0  0  0  0  0  0  0  0  0  0  0  0
    0.0000   -3.3293    0.0000 C   0  0  0  0  0  0  0  0  0  0  0  0
  1  2  2  0  0  0  0 
  1  3  1  0  0  0  0 
  1  4  1  0  0  0  0 
  3  5  1  0  0  0  0 
  5  6  1  0  0  0  0 
  6  7  2  0  0  0  0 
  6  8  1  0  0  0  0 
  7  9  1  0  0  0  0 
  8 10  2  0  0  0  0 
  9 11  2  0  0  0  0 
 10 11  1  0  0  0  0 
M  END
> <Name>
Carbonochloridic acid, phenylmethyl ester

> <Source>
DSSTox2DMolFile

> <Tox>
1.755

> <CAS>
501-53-1

$$$$

  CDK

  7  6  0  0  0  0  0  0  0  0999 V2000
    1.1545   -1.3346    0.0000 C   0  0  0  0  0  0  0  0  0  0  0  0
    2.3090   -1.9903    0.0000 C   0  0  0  0  0  0  0  0  0  0  0  0
    0.0000   -1.9903    0.0000 O   0  0  0  0  0  0  0  0  0  0  0  0
    1.1545   -0.0000    0.0000 O   0  0  0  0  0  0  0  0  0  0  0  0
    3.4634   -1.3346    0.0000 C   0  0  0  0  0  0  0  0  0  0  0  0
    4.6179   -1.9903    0.0000 C   0  0  0  0  0  0  0  0  0  0  0  0
    3.4634   -0.0000    0.0000 C   0  0  0  0  0  0  0  0  0  0  0  0
  1  2  1  0  0  0  0 
  1  3  1  0  0  0  0 
  1  4  2  0  0  0  0 
  2  5  1  0  0  0  0 
  5  6  1  0  0  0  0 
  5  7  1  0  0  0  0 
M  END
> <Name>
Butanoic acid, 3-methyl-

> <Source>
DSSTox2DMolFile

> <Tox>
1.742

> <CAS>
503-74-2

$$$$

  CDK

  7  6  0  0  0  0  0  0  0  0999 V2000
    0.0000    0.0503    0.0000 Cl  0  0  0  0  0  0  0  0  0  0  0  0
    0.8550    0.5533    0.0000 C   0  0  0  0  0  0  0  0  0  0  0  0
    1.7603    0.0000    0.0000 C   0  0  0  0  0  0  0  0  0  0  0  0
    2.6154    0.5533    0.0000 S   0  0  0  0  0  0  0  0  0  0  0  0
    3.4201    0.0503    0.0000 C   0  0  0  0  0  0  0  0  0  0  0  0
    4.3254    0.5030    0.0000 C   0  0  0  0  0  0  0  0  0  0  0  0
    5.1805    0.0503    0.0000 Cl  0  0  0  0  0  0  0  0  0  0  0  0
  1  2  1  0  0  0  0 
  2  3  1  0  0  0  0 
  3  4  1  0  0  0  0 
  4  5  1  0  0  0  0 
  5  6  1  0  0  0  0 
  6  7  1  0  0  0  0 
M  END
> <Name>
Ethane, 1,1'-thiobis(2-chloro-

> <Source>
NIST2DMolFile

> <Tox>
3.971

> <CAS>
505-60-2

$$$$

  CDK

  8  7  0  0  0  0  0  0  0  0999 V2000
    3.3237   -1.9950    0.0000 O   0  0  0  0  0  0  0  0  0  0  0  0
    1.9950   -1.9950    0.0000 P   0  0  0  0  0  0  0  0  0  0  0  0
    1.9950   -3.3237    0.0000 O   0  0  0  0  0  0  0  0  0  0  0  0
    0.6663   -1.9950    0.0000 O   0  0  0  0  0  0  0  0  0  0  0  0
    1.9950   -0.6663    0.0000 O   0  0  0  0  0  0  0  0  0  0  0  0
    3.1481   -3.9900    0.0000 C   0  0  0  0  0  0  0  0  0  0  0  0
    0.0000   -3.1481    0.0000 C   0  0  0  0  0  0  0  0  0  0  0  0
    3.1481   -0.0000    0.0000 C   0  0  0  0  0  0  0  0  0  0  0  0
  1  2  2  0  0  0  0 
  2  3  1  0  0  0  0 
  2  4  1  0  0  0  0 
  2  5  1  0  0  0  0 
  3  6  1  0  0  0  0 
  4  7  1  0  0  0  0 
  5  8  1  0  0  0  0 
M  END
> <Name>
Phosphoric acid, trimethyl ester

> <Source>
DSSTox2DMolFile

> <Tox>
2.222

> <CAS>
512-56-1

$$$$

  CDK

 12 13  0  0  0  0  0  0  0  0999 V2000
    1.2903    0.4185    0.0000 C   0  0  0  0  0  0  0  0  0  0  0  0
    0.6277    0.1046    0.0000 C   0  0  0  0  0  0  0  0  0  0  0  0
    1.8483    0.0000    0.0000 C   0  0  0  0  0  0  0  0  0  0  0  0
    1.3252    1.1159    0.0000 C   0  0  0  0  0  0  0  0  0  0  0  0
    0.7323    2.4062    0.0000 C   0  0  0  0  0  0  0  0  0  0  0  0
    0.0000    0.4882    0.0000 C   0  0  0  0  0  0  0  0  0  0  0  0
    2.6155    0.5580    0.0000 O   0  0  0  0  0  0  0  0  0  0  0  0
    1.2554    2.7201    0.0000 C   0  0  0  0  0  0  0  0  0  0  0  0
    0.1744    1.2205    0.0000 C   0  0  0  0  0  0  0  0  0  0  0  0
    2.7898    1.2554    0.0000 O   0  0  0  0  0  0  0  0  0  0  0  0
    1.5344    1.7785    0.0000 C   0  0  0  0  0  0  0  0  0  0  0  0
    1.7088    2.4411    0.0000 C   0  0  0  0  0  0  0  0  0  0  0  0
  1  2  1  0  0  0  0 
  1  3  1  0  0  0  0 
  1  4  1  0  0  0  0 
  5  4  1  0  0  0  0 
  4  6  1  0  0  0  0 
  7  4  1  0  0  0  0 
  5  8  1  0  0  0  0 
  6  9  2  0  0  0  0 
 10  7  1  0  0  0  0 
  8 11  1  0  0  0  0 
 11  9  1  0  0  0  0 
 11 10  1  0  0  0  0 
 11 12  1  0  0  0  0 
M  END
> <Name>
2,3-Dioxabicyclo(2.2.2)oct-5-ene, 1-methyl-4-(1-methylethyl)- (9CI)

> <Source>
NIST2DMolFile

> <Tox>
2.925

> <CAS>
512-85-6

$$$$

  CDK

  8  7  0  0  0  0  0  0  0  0999 V2000
    0.7141    1.2242    0.0000 O   0  0  0  0  0  0  0  0  0  0  0  0
    1.6323    1.6323    0.0000 S   0  0  0  0  0  0  0  0  0  0  0  0
    2.3974    2.0913    0.0000 O   0  0  0  0  0  0  0  0  0  0  0  0
    1.0712    2.6524    0.0000 C   0  0  0  0  0  0  0  0  0  0  0  0
    2.0913    0.8671    0.0000 C   0  0  0  0  0  0  0  0  0  0  0  0
    0.0000    2.6524    0.0000 C   0  0  0  0  0  0  0  0  0  0  0  0
    3.0605    0.8671    0.0000 C   0  0  0  0  0  0  0  0  0  0  0  0
    3.5706    0.0000    0.0000 O   0  0  0  0  0  0  0  0  0  0  0  0
  1  2  2  0  0  0  0 
  2  3  2  0  0  0  0 
  2  4  1  0  0  0  0 
  2  5  1  0  0  0  0 
  4  6  1  0  0  0  0 
  5  7  1  0  0  0  0 
  7  8  1  0  0  0  0 
M  END
> <Name>
Ethanol, 2-(ethylsulfonyl)-

> <Source>
NIST2DMolFile

> <Tox>
0.885

> <CAS>
513-12-2

$$$$

  CDK

  5  4  0  0  0  0  0  0  0  0999 V2000
    3.4567   -1.9945    0.0000 C   0  0  0  0  0  0  0  0  0  0  0  0
    2.3056   -1.3308    0.0000 C   0  0  0  0  0  0  0  0  0  0  0  0
    1.1511   -1.9945    0.0000 C   0  0  0  0  0  0  0  0  0  0  0  0
    2.3056   -0.0000    0.0000 C   0  0  0  0  0  0  0  0  0  0  0  0
    0.0000   -1.3308    0.0000 Cl  0  0  0  0  0  0  0  0  0  0  0  0
  1  2  1  0  0  0  0 
  2  3  2  0  0  0  0 
  2  4  1  0  0  0  0 
  3  5  1  0  0  0  0 
M  END
> <Name>
Propene, 1-chloro-2-methyl-

> <Source>
DSSTox2DMolFile

> <Tox>
1.307

> <CAS>
513-37-1

$$$$

  CDK

 24 27  0  0  0  0  0  0  0  0999 V2000
    0.0000    0.5594    0.0000 C   0  0  0  0  0  0  0  0  0  0  0  0
    0.0000    1.4749    0.0000 C   0  0  0  0  0  0  0  0  0  0  0  0
    0.8646    0.0000    0.0000 C   0  0  0  0  0  0  0  0  0  0  0  0
    0.8646    2.0344    0.0000 C   0  0  0  0  0  0  0  0  0  0  0  0
    1.7292    0.5594    0.0000 C   0  0  0  0  0  0  0  0  0  0  0  0
    1.7292    1.4749    0.0000 C   0  0  0  0  0  0  0  0  0  0  0  0
    2.5938    0.0000    0.0000 O   0  0  0  0  0  0  0  0  0  0  0  0
    2.5938    2.0344    0.0000 C   0  0  0  0  0  0  0  0  0  0  0  0
    3.5093    0.5594    0.0000 C   0  0  0  0  0  0  0  0  0  0  0  0
    3.5093    1.4749    0.0000 C   0  0  0  0  0  0  0  0  0  0  0  0
    2.5938    3.0007    0.0000 O   0  0  0  0  0  0  0  0  0  0  0  0
    4.3230    0.0000    0.0000 O   0  0  0  0  0  0  0  0  0  0  0  0
    4.3230    2.0344    0.0000 C   0  0  0  0  0  0  0  0  0  0  0  0
    3.5093    3.5093    0.0000 C   0  0  0  0  0  0  0  0  0  0  0  0
    4.3230    3.0007    0.0000 C   0  0  0  0  0  0  0  0  0  0  0  0
    5.1876    1.4749    0.0000 C   0  0  0  0  0  0  0  0  0  0  0  0
    2.6447    4.0687    0.0000 C   0  0  0  0  0  0  0  0  0  0  0  0
    4.3230    4.0687    0.0000 O   0  0  0  0  0  0  0  0  0  0  0  0
    5.1876    0.5594    0.0000 C   0  0  0  0  0  0  0  0  0  0  0  0
    6.0522    2.0344    0.0000 C   0  0  0  0  0  0  0  0  0  0  0  0
    4.3230    5.0859    0.0000 C   0  0  0  0  0  0  0  0  0  0  0  0
    6.0522    0.0000    0.0000 C   0  0  0  0  0  0  0  0  0  0  0  0
    6.9168    1.4749    0.0000 C   0  0  0  0  0  0  0  0  0  0  0  0
    6.9168    0.5594    0.0000 C   0  0  0  0  0  0  0  0  0  0  0  0
  1  2  2  0  0  0  0 
  3  1  1  0  0  0  0 
  2  4  1  0  0  0  0 
  5  3  2  0  0  0  0 
  4  6  2  0  0  0  0 
  5  6  1  0  0  0  0 
  7  5  1  0  0  0  0 
  6  8  1  0  0  0  0 
  9  7  1  0  0  0  0 
 10  8  2  0  0  0  0 
  8 11  1  0  0  0  0 
 10  9  1  0  0  0  0 
  9 12  2  0  0  0  0 
 13 10  1  0  0  0  0 
 11 14  1  0  0  0  0 
 15 13  1  0  0  0  0 
 13 16  1  0  0  0  0 
 14 15  1  0  0  0  0 
 14 17  1  0  0  0  0 
 14 18  1  0  0  0  0 
 19 16  2  0  0  0  0 
 16 20  1  0  0  0  0 
 18 21  1  0  0  0  0 
 22 19  1  0  0  0  0 
 20 23  2  0  0  0  0 
 24 22  2  0  0  0  0 
 23 24  1  0  0  0  0 
M  END
> <Name>
2H-Pyran-5-carboxylic acid, 3,4-dihydro-6-(o-hydroxyphenyl)-2-methoxy-2-methyl-4-phenyl-, delta-lactone

> <Source>
NIST2DMolFile

> <Tox>
1.906

> <CAS>
518-20-7

$$$$

  CDK

 21 22  0  0  0  0  0  0  0  0999 V2000
    1.7490    3.8477    0.0000 O   0  0  0  0  0  0  0  0  0  0  0  0
    1.7490    2.8483    0.0000 C   0  0  0  0  0  0  0  0  0  0  0  0
    2.5984    2.3486    0.0000 C   0  0  0  0  0  0  0  0  0  0  0  0
    0.8495    2.3486    0.0000 C   0  0  0  0  0  0  0  0  0  0  0  0
    3.4479    2.8483    0.0000 C   0  0  0  0  0  0  0  0  0  0  0  0
    2.5984    1.3492    0.0000 C   0  0  0  0  0  0  0  0  0  0  0  0
    0.0000    2.8483    0.0000 C   0  0  0  0  0  0  0  0  0  0  0  0
    0.8495    1.3492    0.0000 C   0  0  0  0  0  0  0  0  0  0  0  0
    4.3474    2.3486    0.0000 C   0  0  0  0  0  0  0  0  0  0  0  0
    3.4479    3.8477    0.0000 O   0  0  0  0  0  0  0  0  0  0  0  0
    1.7490    0.8495    0.0000 C   0  0  0  0  0  0  0  0  0  0  0  0
    5.1969    2.8483    0.0000 C   0  0  0  0  0  0  0  0  0  0  0  0
    1.2493    0.0000    0.0000 O   0  0  0  0  0  0  0  0  0  0  0  0
    2.4485    0.1499    0.0000 C   0  0  0  0  0  0  0  0  0  0  0  0
    5.1969    3.8477    0.0000 C   0  0  0  0  0  0  0  0  0  0  0  0
    6.0464    2.3486    0.0000 C   0  0  0  0  0  0  0  0  0  0  0  0
    6.0464    4.3474    0.0000 C   0  0  0  0  0  0  0  0  0  0  0  0
    6.9458    2.8483    0.0000 C   0  0  0  0  0  0  0  0  0  0  0  0
    6.0464    5.3468    0.0000 O   0  0  0  0  0  0  0  0  0  0  0  0
    6.9458    3.8477    0.0000 N   0  0  0  0  0  0  0  0  0  0  0  0
    7.7953    2.3486    0.0000 O   0  0  0  0  0  0  0  0  0  0  0  0
  1  2  2  0  0  0  0 
  2  3  1  0  0  0  0 
  4  2  1  0  0  0  0 
  5  3  1  0  0  0  0 
  3  6  1  0  0  0  0 
  7  4  1  0  0  0  0 
  8  4  1  0  0  0  0 
  9  5  1  0  0  0  0 
  5 10  1  0  0  0  0 
  6 11  1  0  0  0  0 
 11  8  1  0  0  0  0 
 12  9  1  0  0  0  0 
 13 11  1  0  0  0  0 
 11 14  1  0  0  0  0 
 12 15  1  0  0  0  0 
 16 12  1  0  0  0  0 
 15 17  1  0  0  0  0 
 18 16  1  0  0  0  0 
 19 17  2  0  0  0  0 
 17 20  1  0  0  0  0 
 21 18  2  0  0  0  0 
 20 18  1  0  0  0  0 
M  END
> <Name>
2,6-Piperidinedione, 4-(2-hydroxy-2-(5-hydroxy-3,5-dimethyl-2-oxocyclohexyl)ethyl)- (VAN) (9CI)

> <Source>
NIST2DMolFile

> <Tox>
4.996

> <CAS>
523-86-4

$$$$

  CDK

 10 10  0  0  0  0  0  0  0  0999 V2000
    5.3182   -2.3028    0.0000 C   0  0  0  0  0  0  0  0  0  0  0  0
    3.9887   -2.3028    0.0000 C   0  0  0  0  0  0  0  0  0  0  0  0
    3.3239   -3.4568    0.0000 C   0  0  0  0  0  0  0  0  0  0  0  0
    3.3239   -1.1487    0.0000 C   0  0  0  0  0  0  0  0  0  0  0  0
    3.9887   -4.6056    0.0000 C   0  0  0  0  0  0  0  0  0  0  0  0
    1.9943   -3.4568    0.0000 C   0  0  0  0  0  0  0  0  0  0  0  0
    1.9943   -1.1487    0.0000 C   0  0  0  0  0  0  0  0  0  0  0  0
    3.9887   -0.0000    0.0000 C   0  0  0  0  0  0  0  0  0  0  0  0
    1.3296   -2.3028    0.0000 C   0  0  0  0  0  0  0  0  0  0  0  0
    0.0000   -2.3028    0.0000 C   0  0  0  0  0  0  0  0  0  0  0  0
  1  2  1  0  0  0  0 
  2  3  2  0  0  0  0 
  2  4  1  0  0  0  0 
  3  5  1  0  0  0  0 
  3  6  1  0  0  0  0 
  7  4  2  0  0  0  0 
  4  8  1  0  0  0  0 
  6  9  2  0  0  0  0 
  9  7  1  0  0  0  0 
  9 10  1  0  0  0  0 
M  END
> <Name>
Benzene, 1,2,3,5-tetramethyl-

> <Source>
DSSTox2DMolFile

> <Tox>
1.415

> <CAS>
527-53-7

$$$$

  CDK

 19 19  0  0  0  0  0  0  0  0999 V2000
    8.0703   -3.9844    0.0000 C   0  0  0  0  0  0  0  0  0  0  0  0
    9.2232   -3.3296    0.0000 O   0  0  0  0  0  0  0  0  0  0  0  0
    8.0703   -5.3126    0.0000 C   0  0  0  0  0  0  0  0  0  0  0  0
    6.9174   -3.3296    0.0000 O   0  0  0  0  0  0  0  0  0  0  0  0
    9.2232   -5.9859    0.0000 N   0  0  0  0  0  0  0  0  0  0  0  0
    6.9174   -5.9859    0.0000 C   0  0  0  0  0  0  0  0  0  0  0  0
    5.7645   -5.3126    0.0000 C   0  0  0  0  0  0  0  0  0  0  0  0
    4.6116   -5.9859    0.0000 C   0  0  0  0  0  0  0  0  0  0  0  0
    5.7645   -3.9844    0.0000 C   0  0  0  0  0  0  0  0  0  0  0  0
    3.4587   -5.3126    0.0000 C   0  0  0  0  0  0  0  0  0  0  0  0
    4.6116   -3.3296    0.0000 C   0  0  0  0  0  0  0  0  0  0  0  0
    3.4587   -3.9844    0.0000 C   0  0  0  0  0  0  0  0  0  0  0  0
    2.3058   -3.3296    0.0000 N   0  0  0  0  0  0  0  0  0  0  0  0
    2.3058   -2.0014    0.0000 C   0  0  0  0  0  0  0  0  0  0  0  0
    1.1529   -3.9844    0.0000 C   0  0  0  0  0  0  0  0  0  0  0  0
    1.1529   -1.3281    0.0000 C   0  0  0  0  0  0  0  0  0  0  0  0
    1.1529   -5.3126    0.0000 C   0  0  0  0  0  0  0  0  0  0  0  0
    1.1529   -0.0000    0.0000 Cl  0  0  0  0  0  0  0  0  0  0  0  0
    0.0000   -5.9859    0.0000 Cl  0  0  0  0  0  0  0  0  0  0  0  0
  1  2  2  0  0  0  0 
  1  3  1  0  0  0  0 
  1  4  1  0  0  0  0 
  3  5  1  0  0  0  0 
  3  6  1  0  0  0  0 
  6  7  1  0  0  0  0 
  7  8  2  0  0  0  0 
  7  9  1  0  0  0  0 
  8 10  1  0  0  0  0 
  9 11  2  0  0  0  0 
 10 12  2  0  0  0  0 
 11 12  1  0  0  0  0 
 12 13  1  0  0  0  0 
 13 14  1  0  0  0  0 
 13 15  1  0  0  0  0 
 14 16  1  0  0  0  0 
 15 17  1  0  0  0  0 
 16 18  1  0  0  0  0 
 17 19  1  0  0  0  0 
M  END
> <Name>
Alanine, 3-(p-(bis(2-chloroethyl)amino)phenyl)-, DL-

> <Source>
DSSTox2DMolFile

> <Tox>
3.463

> <CAS>
531-76-0

$$$$

  CDK

 15 15  0  0  0  0  0  0  0  0999 V2000
   -2.4106   -1.9935   -0.0320 C   0  0  0  0  0  0  0  0  0  0  0  0
   -2.1476   -3.4702    0.1323 C   0  0  0  0  0  0  0  0  0  0  0  0
   -3.5125   -1.5269   -0.2986 O   0  0  0  0  0  0  0  0  0  0  0  0
   -1.2937   -1.1423    0.1291 N   0  0  0  0  0  0  0  0  0  0  0  0
   -1.3127    0.2865    0.0672 C   0  0  0  0  0  0  0  0  0  0  0  0
   -0.1328    1.0247    0.3033 C   0  0  0  0  0  0  0  0  0  0  0  0
   -2.4959    0.9780   -0.2286 C   0  0  0  0  0  0  0  0  0  0  0  0
   -0.1500    2.4215    0.2460 C   0  0  0  0  0  0  0  0  0  0  0  0
    1.0209    0.3579    0.7040 O   0  0  0  0  0  0  0  0  0  0  0  0
   -2.4989    2.3637   -0.2892 C   0  0  0  0  0  0  0  0  0  0  0  0
   -1.3328    3.0855   -0.0527 C   0  0  0  0  0  0  0  0  0  0  0  0
    2.0451    0.3637   -0.2934 C   0  0  0  0  0  0  0  0  0  0  0  0
    3.2685   -0.2966    0.3346 C   0  0  0  0  0  0  0  0  0  0  0  0
    4.4140   -0.3487   -0.6635 C   0  0  0  0  0  0  0  0  0  0  0  0
    5.6402   -0.9961   -0.0609 C   0  0  0  0  0  0  0  0  0  0  0  0
  1  2  1  0  0  0  0 
  1  3  2  0  0  0  0 
  1  4  1  0  0  0  0 
  4  5  1  0  0  0  0 
  5  6  1  0  0  0  0 
  5  7  2  0  0  0  0 
  6  8  2  0  0  0  0 
  6  9  1  0  0  0  0 
 10  7  1  0  0  0  0 
  8 11  1  0  0  0  0 
  9 12  1  0  0  0  0 
 11 10  2  0  0  0  0 
 12 13  1  0  0  0  0 
 13 14  1  0  0  0  0 
 14 15  1  0  0  0  0 
M  END
> <Name>
Acetamide, N-(2-butoxyphenyl)- (9CI)

> <Source>
DougDB3DMolFile

> <Tox>
1.854

> <CAS>
532-09-2

$$$$

  CDK

 10 10  0  0  0  0  0  0  0  0999 V2000
    4.6545   -3.4536    0.0000 O   0  0  0  0  0  0  0  0  0  0  0  0
    3.9889   -2.3040    0.0000 C   0  0  0  0  0  0  0  0  0  0  0  0
    2.6577   -2.3040    0.0000 C   0  0  0  0  0  0  0  0  0  0  0  0
    4.6545   -1.1497    0.0000 C   0  0  0  0  0  0  0  0  0  0  0  0
    1.9968   -3.4536    0.0000 C   0  0  0  0  0  0  0  0  0  0  0  0
    1.9968   -1.1497    0.0000 C   0  0  0  0  0  0  0  0  0  0  0  0
    3.9889   -0.0000    0.0000 Cl  0  0  0  0  0  0  0  0  0  0  0  0
    0.6656   -3.4536    0.0000 C   0  0  0  0  0  0  0  0  0  0  0  0
    0.6656   -1.1497    0.0000 C   0  0  0  0  0  0  0  0  0  0  0  0
    0.0000   -2.3040    0.0000 C   0  0  0  0  0  0  0  0  0  0  0  0
  1  2  2  0  0  0  0 
  2  3  1  0  0  0  0 
  2  4  1  0  0  0  0 
  3  5  2  0  0  0  0 
  3  6  1  0  0  0  0 
  4  7  1  0  0  0  0 
  5  8  1  0  0  0  0 
  9  6  2  0  0  0  0 
  8 10  2  0  0  0  0 
 10  9  1  0  0  0  0 
M  END
> <Name>
Ethanone, 2-chloro-1-phenyl-

> <Source>
DSSTox2DMolFile

> <Tox>
3.490

> <CAS>
532-27-4

$$$$

  CDK

  6  5  0  0  0  0  0  0  0  0999 V2000
    2.2870   -1.3318    0.0000 C   0  0  0  0  0  0  0  0  0  0  0  0
    2.2870   -0.0000    0.0000 C   0  0  0  0  0  0  0  0  0  0  0  0
    1.1343   -2.0023    0.0000 O   0  0  0  0  0  0  0  0  0  0  0  0
    3.4397   -2.0023    0.0000 O   0  0  0  0  0  0  0  0  0  0  0  0
    0.0000   -1.3318    0.0000 C   0  0  0  0  0  0  0  0  0  0  0  0
    4.5924   -1.3318    0.0000 C   0  0  0  0  0  0  0  0  0  0  0  0
  1  2  1  0  0  0  0 
  1  3  1  0  0  0  0 
  1  4  1  0  0  0  0 
  3  5  1  0  0  0  0 
  4  6  1  0  0  0  0 
M  END
> <Name>
Acetaldehyde, dimethyl acetal

> <Source>
DSSTox2DMolFile

> <Tox>
1.142

> <CAS>
534-15-6

$$$$

  CDK

 11 11  0  0  0  0  0  0  0  0999 V2000
    0.0000   -2.3022    0.0000 C   0  0  0  0  0  0  0  0  0  0  0  0
    0.6654   -1.1511    0.0000 C   0  0  0  0  0  0  0  0  0  0  0  0
    1.9961   -1.1511    0.0000 C   0  0  0  0  0  0  0  0  0  0  0  0
    0.0000   -0.0000    0.0000 C   0  0  0  0  0  0  0  0  0  0  0  0
    2.6615   -0.0000    0.0000 C   0  0  0  0  0  0  0  0  0  0  0  0
    2.6615   -2.3022    0.0000 C   0  0  0  0  0  0  0  0  0  0  0  0
    3.9923   -0.0000    0.0000 C   0  0  0  0  0  0  0  0  0  0  0  0
    3.9923   -2.3022    0.0000 C   0  0  0  0  0  0  0  0  0  0  0  0
    4.6576   -1.1511    0.0000 C   0  0  0  0  0  0  0  0  0  0  0  0
    5.9884   -1.1511    0.0000 C   0  0  0  0  0  0  0  0  0  0  0  0
    6.6538   -0.0000    0.0000 O   0  0  0  0  0  0  0  0  0  0  0  0
  1  2  1  0  0  0  0 
  2  3  1  0  0  0  0 
  2  4  1  0  0  0  0 
  3  5  2  0  0  0  0 
  3  6  1  0  0  0  0 
  5  7  1  0  0  0  0 
  8  6  2  0  0  0  0 
  7  9  2  0  0  0  0 
  9  8  1  0  0  0  0 
  9 10  1  0  0  0  0 
 10 11  1  0  0  0  0 
M  END
> <Name>
Benzenemethanol, 4-(1-methylethyl)-

> <Source>
DSSTox2DMolFile

> <Tox>
2.168

> <CAS>
536-60-7

$$$$

  CDK

 33 32  0  0  0  0  0  0  0  0999 V2000
    5.7724   -7.3216    0.0000 O   0  0  0  0  0  0  0  0  0  0  0  0
    6.9158   -7.9855    0.0000 C   0  0  0  0  0  0  0  0  0  0  0  0
    8.0777   -7.3216    0.0000 O   0  0  0  0  0  0  0  0  0  0  0  0
    6.9158   -9.3133    0.0000 C   0  0  0  0  0  0  0  0  0  0  0  0
    8.0777   -5.9753    0.0000 C   0  0  0  0  0  0  0  0  0  0  0  0
    5.7724   -9.9773    0.0000 C   0  0  0  0  0  0  0  0  0  0  0  0
    9.2211   -5.3114    0.0000 C   0  0  0  0  0  0  0  0  0  0  0  0
    6.9158   -5.3114    0.0000 C   0  0  0  0  0  0  0  0  0  0  0  0
    4.6106   -9.3133    0.0000 C   0  0  0  0  0  0  0  0  0  0  0  0
   10.3645   -5.9753    0.0000 O   0  0  0  0  0  0  0  0  0  0  0  0
    5.7724   -5.9753    0.0000 O   0  0  0  0  0  0  0  0  0  0  0  0
    3.4487   -9.9773    0.0000 C   0  0  0  0  0  0  0  0  0  0  0  0
   11.5264   -5.3114    0.0000 C   0  0  0  0  0  0  0  0  0  0  0  0
    4.6106   -5.3114    0.0000 C   0  0  0  0  0  0  0  0  0  0  0  0
    2.3053   -9.3133    0.0000 C   0  0  0  0  0  0  0  0  0  0  0  0
   12.6698   -5.9753    0.0000 O   0  0  0  0  0  0  0  0  0  0  0  0
   11.5264   -3.9835    0.0000 C   0  0  0  0  0  0  0  0  0  0  0  0
    4.6106   -3.9835    0.0000 O   0  0  0  0  0  0  0  0  0  0  0  0
    3.4487   -5.9753    0.0000 C   0  0  0  0  0  0  0  0  0  0  0  0
    1.1434   -9.9773    0.0000 C   0  0  0  0  0  0  0  0  0  0  0  0
   12.6698   -3.3196    0.0000 C   0  0  0  0  0  0  0  0  0  0  0  0
    2.3053   -5.3114    0.0000 C   0  0  0  0  0  0  0  0  0  0  0  0
    0.0000   -9.3133    0.0000 C   0  0  0  0  0  0  0  0  0  0  0  0
   13.8317   -3.9835    0.0000 C   0  0  0  0  0  0  0  0  0  0  0  0
    2.3053   -3.9835    0.0000 C   0  0  0  0  0  0  0  0  0  0  0  0
   14.9936   -3.3196    0.0000 C   0  0  0  0  0  0  0  0  0  0  0  0
    1.1434   -3.3196    0.0000 C   0  0  0  0  0  0  0  0  0  0  0  0
   16.1370   -3.9835    0.0000 C   0  0  0  0  0  0  0  0  0  0  0  0
    1.1434   -1.9918    0.0000 C   0  0  0  0  0  0  0  0  0  0  0  0
   17.2804   -3.3196    0.0000 C   0  0  0  0  0  0  0  0  0  0  0  0
    0.0000   -1.3278    0.0000 C   0  0  0  0  0  0  0  0  0  0  0  0
   18.4423   -3.9835    0.0000 C   0  0  0  0  0  0  0  0  0  0  0  0
    0.0000   -0.0000    0.0000 C   0  0  0  0  0  0  0  0  0  0  0  0
  1  2  2  0  0  0  0 
  2  3  1  0  0  0  0 
  2  4  1  0  0  0  0 
  3  5  1  0  0  0  0 
  4  6  1  0  0  0  0 
  5  7  1  0  0  0  0 
  5  8  1  0  0  0  0 
  6  9  1  0  0  0  0 
  7 10  1  0  0  0  0 
  8 11  1  0  0  0  0 
  9 12  1  0  0  0  0 
 10 13  1  0  0  0  0 
 11 14  1  0  0  0  0 
 12 15  1  0  0  0  0 
 13 16  2  0  0  0  0 
 13 17  1  0  0  0  0 
 14 18  2  0  0  0  0 
 14 19  1  0  0  0  0 
 15 20  1  0  0  0  0 
 17 21  1  0  0  0  0 
 19 22  1  0  0  0  0 
 20 23  1  0  0  0  0 
 21 24  1  0  0  0  0 
 22 25  1  0  0  0  0 
 24 26  1  0  0  0  0 
 25 27  1  0  0  0  0 
 26 28  1  0  0  0  0 
 27 29  1  0  0  0  0 
 28 30  1  0  0  0  0 
 29 31  1  0  0  0  0 
 30 32  1  0  0  0  0 
 31 33  1  0  0  0  0 
M  END
> <Name>
Octanoic acid, 1,2,3-propanetriyl ester

> <Source>
DSSTox2DMolFile

> <Tox>
1.150

> <CAS>
538-23-8

$$$$

  CDK

 15 16  0  0  0  0  0  0  0  0999 V2000
    4.5999   -2.0055    0.0000 C   0  0  0  0  0  0  0  0  0  0  0  0
    5.7406   -1.3248    0.0000 N   0  0  0  0  0  0  0  0  0  0  0  0
    3.4591   -2.6587    0.0000 N   0  0  0  0  0  0  0  0  0  0  0  0
    6.8998   -2.0055    0.0000 C   0  0  0  0  0  0  0  0  0  0  0  0
    2.2999   -2.0055    0.0000 C   0  0  0  0  0  0  0  0  0  0  0  0
    8.0406   -1.3248    0.0000 C   0  0  0  0  0  0  0  0  0  0  0  0
    6.8998   -3.3303    0.0000 C   0  0  0  0  0  0  0  0  0  0  0  0
    1.1592   -2.6587    0.0000 C   0  0  0  0  0  0  0  0  0  0  0  0
    2.2999   -0.6532    0.0000 C   0  0  0  0  0  0  0  0  0  0  0  0
    9.1997   -2.0055    0.0000 C   0  0  0  0  0  0  0  0  0  0  0  0
    8.0406   -3.9835    0.0000 C   0  0  0  0  0  0  0  0  0  0  0  0
    0.0000   -2.0055    0.0000 C   0  0  0  0  0  0  0  0  0  0  0  0
    1.1592   -0.0000    0.0000 C   0  0  0  0  0  0  0  0  0  0  0  0
    9.1997   -3.3303    0.0000 C   0  0  0  0  0  0  0  0  0  0  0  0
    0.0000   -0.6532    0.0000 C   0  0  0  0  0  0  0  0  0  0  0  0
  1  2  2  0  0  0  0 
  1  3  2  0  0  0  0 
  2  4  1  0  0  0  0 
  3  5  1  0  0  0  0 
  4  6  1  0  0  0  0 
  4  7  1  0  0  0  0 
  5  8  1  0  0  0  0 
  5  9  1  0  0  0  0 
  6 10  1  0  0  0  0 
  7 11  1  0  0  0  0 
  8 12  1  0  0  0  0 
  9 13  1  0  0  0  0 
 10 14  1  0  0  0  0 
 11 14  1  0  0  0  0 
 12 15  1  0  0  0  0 
 13 15  1  0  0  0  0 
M  END
> <Name>
Cyclohexaamine, N,N'-methanetetraylbis- (9CI)

> <Source>
DSSTox2DMolFile

> <Tox>
2.712

> <CAS>
538-75-0

$$$$

  CDK

 16 16  0  0  0  0  0  0  0  0999 V2000
    5.9880   -1.1487    0.0000 C   0  0  0  0  0  0  0  0  0  0  0  0
    6.6474   -2.2973    0.0000 C   0  0  0  0  0  0  0  0  0  0  0  0
    4.6585   -1.1487    0.0000 C   0  0  0  0  0  0  0  0  0  0  0  0
    7.9769   -2.2973    0.0000 N   0  0  0  0  0  0  0  0  0  0  0  0
    5.9880   -3.4567    0.0000 C   0  0  0  0  0  0  0  0  0  0  0  0
    3.9884   -2.2973    0.0000 C   0  0  0  0  0  0  0  0  0  0  0  0
    8.6470   -3.4567    0.0000 N   0  0  0  0  0  0  0  0  0  0  0  0
    4.6585   -3.4567    0.0000 C   0  0  0  0  0  0  0  0  0  0  0  0
    2.6590   -2.2973    0.0000 N   0  0  0  0  0  0  0  0  0  0  0  0
    9.9658   -3.4567    0.0000 C   0  0  0  0  0  0  0  0  0  0  0  0
    1.9889   -1.1487    0.0000 N   0  0  0  0  0  0  0  0  0  0  0  0
   10.6359   -4.6053    0.0000 N   0  0  0  0  0  0  0  0  0  0  0  0
   10.6359   -2.2973    0.0000 N   0  0  0  0  0  0  0  0  0  0  0  0
    0.6594   -1.1487    0.0000 C   0  0  0  0  0  0  0  0  0  0  0  0
    0.0000   -2.2973    0.0000 N   0  0  0  0  0  0  0  0  0  0  0  0
    0.0000   -0.0000    0.0000 S   0  0  0  0  0  0  0  0  0  0  0  0
  1  2  1  0  0  0  0 
  1  3  2  0  0  0  0 
  2  4  2  0  0  0  0 
  2  5  1  0  0  0  0 
  6  3  1  0  0  0  0 
  4  7  1  0  0  0  0 
  5  8  2  0  0  0  0 
  8  6  1  0  0  0  0 
  6  9  2  0  0  0  0 
  7 10  1  0  0  0  0 
  9 11  1  0  0  0  0 
 10 12  1  0  0  0  0 
 10 13  2  0  0  0  0 
 11 14  1  0  0  0  0 
 14 15  1  0  0  0  0 
 14 16  2  0  0  0  0 
M  END
> <Name>
Guanidine, ((4-oxo-2,5-cyclohexadien-1-ylidene)amino)-, thiosemicarbazone

> <Source>
DSSTox2DMolFile

> <Tox>
2.500

> <CAS>
539-21-9

$$$$

  CDK

  6  5  0  0  0  0  0  0  0  0999 V2000
   -0.4681   -0.5667   -0.5862 C   0  0  0  0  0  0  0  0  0  0  0  0
   -1.4608    0.3341    0.0893 C   0  0  0  0  0  0  0  0  0  0  0  0
    1.3723    0.0374    0.0415 I   0  0  0  0  0  0  0  0  0  0  0  0
   -2.9036    0.0120   -0.3146 C   0  0  0  0  0  0  0  0  0  0  0  0
   -3.8141    1.1725    0.0551 C   0  0  0  0  0  0  0  0  0  0  0  0
   -3.3928   -1.2652    0.3492 C   0  0  0  0  0  0  0  0  0  0  0  0
  1  2  1  0  0  0  0 
  1  3  1  0  0  0  0 
  2  4  1  0  0  0  0 
  4  5  1  0  0  0  0 
  4  6  1  0  0  0  0 
M  END
> <Name>
Butane, 1-iodo-3-methyl-

> <Source>
DougDB3DMolFile

> <Tox>
2.143

> <CAS>
541-28-6

$$$$

  CDK

  7  6  0  0  0  0  0  0  0  0999 V2000
    1.7073    1.5065    0.0000 O   0  0  0  0  0  0  0  0  0  0  0  0
    0.8537    1.0043    0.0000 C   0  0  0  0  0  0  0  0  0  0  0  0
    2.6112    1.0043    0.0000 C   0  0  0  0  0  0  0  0  0  0  0  0
    0.8537    0.0000    0.0000 C   0  0  0  0  0  0  0  0  0  0  0  0
    0.0000    1.5065    0.0000 O   0  0  0  0  0  0  0  0  0  0  0  0
    3.4649    1.5065    0.0000 C   0  0  0  0  0  0  0  0  0  0  0  0
    4.3186    1.0043    0.0000 Cl  0  0  0  0  0  0  0  0  0  0  0  0
  1  2  1  0  0  0  0 
  1  3  1  0  0  0  0 
  2  4  1  0  0  0  0 
  2  5  2  0  0  0  0 
  3  6  1  0  0  0  0 
  6  7  1  0  0  0  0 
M  END
> <Name>
Ethanol, 2-chloro-, acetate

> <Source>
NIST2DMolFile

> <Tox>
4.088

> <CAS>
542-58-5

$$$$

  CDK

  7  6  0  0  0  0  0  0  0  0999 V2000
    0.9039    1.0043    0.0000 C   0  0  0  0  0  0  0  0  0  0  0  0
    1.7576    1.5065    0.0000 O   0  0  0  0  0  0  0  0  0  0  0  0
    0.9039    0.0000    0.0000 C   0  0  0  0  0  0  0  0  0  0  0  0
    0.0000    1.5065    0.0000 O   0  0  0  0  0  0  0  0  0  0  0  0
    2.6112    1.0043    0.0000 C   0  0  0  0  0  0  0  0  0  0  0  0
    3.4649    1.5065    0.0000 C   0  0  0  0  0  0  0  0  0  0  0  0
    4.3186    1.0043    0.0000 O   0  0  0  0  0  0  0  0  0  0  0  0
  1  2  1  0  0  0  0 
  1  3  1  0  0  0  0 
  1  4  2  0  0  0  0 
  2  5  1  0  0  0  0 
  5  6  1  0  0  0  0 
  6  7  1  0  0  0  0 
M  END
> <Name>
Ethylene glycol, monoacetate

> <Source>
NIST2DMolFile

> <Tox>
1.101

> <CAS>
542-59-6

$$$$

  CDK

  5  4  0  0  0  0  0  0  0  0999 V2000
    2.2970   -0.6707    0.0000 C   0  0  0  0  0  0  0  0  0  0  0  0
    3.4455   -0.0000    0.0000 C   0  0  0  0  0  0  0  0  0  0  0  0
    1.1485   -0.0000    0.0000 C   0  0  0  0  0  0  0  0  0  0  0  0
    4.5940   -0.6707    0.0000 Cl  0  0  0  0  0  0  0  0  0  0  0  0
    0.0000   -0.6707    0.0000 Cl  0  0  0  0  0  0  0  0  0  0  0  0
  1  2  2  0  0  0  0 
  1  3  1  0  0  0  0 
  2  4  1  0  0  0  0 
  5  3  1  0  0  0  0 
M  END
> <Name>
1-Propene, 1,3-dichloro-

> <Source>
DSSTox2DMolFile

> <Tox>
2.373

> <CAS>
542-75-6

$$$$

  CDK

 11 10  0  0  0  0  0  0  0  0999 V2000
    0.5016   -0.0000    0.0000 C   0  0  0  0  0  0  0  0  0  0  0  0
    1.1569   -1.1407    0.0000 C   0  0  0  0  0  0  0  0  0  0  0  0
    2.3137   -0.4854    0.0000 C   0  0  0  0  0  0  0  0  0  0  0  0
    1.8283   -2.2976    0.0000 O   0  0  0  0  0  0  0  0  0  0  0  0
    0.0000   -1.8202    0.0000 C   0  0  0  0  0  0  0  0  0  0  0  0
    3.4706   -1.1407    0.0000 C   0  0  0  0  0  0  0  0  0  0  0  0
    4.6194   -0.4854    0.0000 C   0  0  0  0  0  0  0  0  0  0  0  0
    5.7762   -1.1407    0.0000 C   0  0  0  0  0  0  0  0  0  0  0  0
    6.9331   -0.4854    0.0000 C   0  0  0  0  0  0  0  0  0  0  0  0
    5.7762   -2.4755    0.0000 C   0  0  0  0  0  0  0  0  0  0  0  0
    8.0900   -1.1407    0.0000 C   0  0  0  0  0  0  0  0  0  0  0  0
  1  2  1  0  0  0  0 
  2  3  1  0  0  0  0 
  2  4  1  0  0  0  0 
  2  5  1  0  0  0  0 
  3  6  1  0  0  0  0 
  6  7  1  0  0  0  0 
  7  8  1  0  0  0  0 
  8  9  1  0  0  0  0 
  8 10  2  0  0  0  0 
  9 11  2  0  0  0  0 
M  END
> <Name>
7-Octen-2-ol, 2-methyl-6-methylene-

> <Source>
DSSTox2DMolFile

> <Tox>
1.464

> <CAS>
543-39-5

$$$$

  CDK

  9  8  0  0  0  0  0  0  0  0999 V2000
    0.0000   -0.6638    0.0000 C   0  0  0  0  0  0  0  0  0  0  0  0
    1.1525   -0.0000    0.0000 C   0  0  0  0  0  0  0  0  0  0  0  0
    2.3050   -0.6638    0.0000 C   0  0  0  0  0  0  0  0  0  0  0  0
    3.4575   -0.0000    0.0000 C   0  0  0  0  0  0  0  0  0  0  0  0
    4.6099   -0.6638    0.0000 S   0  0  0  0  0  0  0  0  0  0  0  0
    5.7624   -0.0000    0.0000 C   0  0  0  0  0  0  0  0  0  0  0  0
    6.9149   -0.6638    0.0000 C   0  0  0  0  0  0  0  0  0  0  0  0
    8.0674   -0.0000    0.0000 C   0  0  0  0  0  0  0  0  0  0  0  0
    9.2199   -0.6638    0.0000 C   0  0  0  0  0  0  0  0  0  0  0  0
  1  2  1  0  0  0  0 
  2  3  1  0  0  0  0 
  3  4  1  0  0  0  0 
  4  5  1  0  0  0  0 
  5  6  1  0  0  0  0 
  6  7  1  0  0  0  0 
  7  8  1  0  0  0  0 
  8  9  1  0  0  0  0 
M  END
> <Name>
Butane, 1,1'-thiobis-

> <Source>
DSSTox2DMolFile

> <Tox>
1.819

> <CAS>
544-40-1

$$$$

  CDK

 16 17  0  0  0  0  0  0  0  0999 V2000
    9.7089   -2.5923    0.0000 O   0  0  0  0  0  0  0  0  0  0  0  0
    8.4953   -2.0486    0.0000 N   0  0  0  0  0  0  0  0  0  0  0  0
    8.3594   -0.7282    0.0000 O   0  0  0  0  0  0  0  0  0  0  0  0
    7.4176   -2.8350    0.0000 C   0  0  0  0  0  0  0  0  0  0  0  0
    7.4176   -4.1651    0.0000 C   0  0  0  0  0  0  0  0  0  0  0  0
    6.1555   -2.4175    0.0000 O   0  0  0  0  0  0  0  0  0  0  0  0
    6.1555   -4.5729    0.0000 C   0  0  0  0  0  0  0  0  0  0  0  0
    5.3690   -3.4952    0.0000 C   0  0  0  0  0  0  0  0  0  0  0  0
    4.0389   -3.4952    0.0000 C   0  0  0  0  0  0  0  0  0  0  0  0
    3.3787   -2.3496    0.0000 N   0  0  0  0  0  0  0  0  0  0  0  0
    2.0486   -2.3496    0.0000 N   0  0  0  0  0  0  0  0  0  0  0  0
    1.2622   -3.4175    0.0000 C   0  0  0  0  0  0  0  0  0  0  0  0
    1.2622   -1.2719    0.0000 C   0  0  0  0  0  0  0  0  0  0  0  0
    0.0000   -3.0098    0.0000 C   0  0  0  0  0  0  0  0  0  0  0  0
    0.0000   -1.6796    0.0000 N   0  0  0  0  0  0  0  0  0  0  0  0
    1.6796   -0.0000    0.0000 O   0  0  0  0  0  0  0  0  0  0  0  0
  1  2  1  0  0  0  0 
  2  3  2  0  0  0  0 
  2  4  1  0  0  0  0 
  4  5  2  0  0  0  0 
  4  6  1  0  0  0  0 
  5  7  1  0  0  0  0 
  8  6  1  0  0  0  0 
  7  8  2  0  0  0  0 
  8  9  1  0  0  0  0 
  9 10  2  0  0  0  0 
 10 11  1  0  0  0  0 
 11 12  1  0  0  0  0 
 11 13  1  0  0  0  0 
 12 14  1  0  0  0  0 
 15 13  1  0  0  0  0 
 13 16  2  0  0  0  0 
 14 15  1  0  0  0  0 
M  CHG  1   1  -1
M  CHG  1   2   1
M  END
> <Name>
2-Imidazolidinone, 1-(((5-nitro-2-furanyl)methylene)amino)-

> <Source>
DSSTox2DMolFile

> <Tox>
2.125

> <CAS>
555-84-0

$$$$

  CDK

  4  3  0  0  0  0  0  0  0  0999 V2000
   -3.2423    0.2981   -0.2752 C   0  0  0  0  0  0  0  0  0  0  0  0
   -2.1044    0.1489    0.3973 C   0  0  0  0  0  0  0  0  0  0  0  0
   -1.1076   -0.8807    0.0722 C   0  0  0  0  0  0  0  0  0  0  0  0
    0.7035    0.0530   -0.0190 I   0  0  0  0  0  0  0  0  0  0  0  0
  1  2  2  0  0  0  0 
  2  3  1  0  0  0  0 
  3  4  1  0  0  0  0 
M  END
> <Name>
1-Propene, 3-iodo-

> <Source>
DougDB3DMolFile

> <Tox>
4.225

> <CAS>
556-56-9

$$$$

  CDK

  4  3  0  0  0  0  0  0  0  0999 V2000
    1.9918    0.0000    0.0000 S   0  0  0  0  0  0  0  0  0  0  0  0
    0.9959    0.0000    0.0000 C   0  0  0  0  0  0  0  0  0  0  0  0
    2.5395    0.8465    0.0000 C   0  0  0  0  0  0  0  0  0  0  0  0
    0.0000    0.0000    0.0000 N   0  0  0  0  0  0  0  0  0  0  0  0
  1  2  1  0  0  0  0 
  1  3  1  0  0  0  0 
  2  4  3  0  0  0  0 
M  END
> <Name>
Thiocyanic acid, methyl ester

> <Source>
NIST2DMolFile

> <Tox>
3.086

> <CAS>
556-64-9

$$$$

  CDK

  6  5  0  0  0  0  0  0  0  0999 V2000
    1.1553   -1.3355    0.0000 C   0  0  0  0  0  0  0  0  0  0  0  0
    2.3105   -1.9917    0.0000 C   0  0  0  0  0  0  0  0  0  0  0  0
    0.0000   -1.9917    0.0000 O   0  0  0  0  0  0  0  0  0  0  0  0
    3.4658   -1.3355    0.0000 C   0  0  0  0  0  0  0  0  0  0  0  0
    4.6211   -1.9917    0.0000 C   0  0  0  0  0  0  0  0  0  0  0  0
    3.4658   -0.0000    0.0000 C   0  0  0  0  0  0  0  0  0  0  0  0
  1  2  1  0  0  0  0 
  1  3  1  0  0  0  0 
  2  4  2  0  0  0  0 
  4  5  1  0  0  0  0 
  4  6  1  0  0  0  0 
M  END
> <Name>
2-Buten-1-ol, 3-methyl-

> <Source>
DSSTox2DMolFile

> <Tox>
2.027

> <CAS>
556-82-1

$$$$

  CDK

  5  4  0  0  0  0  0  0  0  0999 V2000
    1.0256    2.0000    0.0000 O   0  0  0  0  0  0  0  0  0  0  0  0
    1.0256    0.9744    0.0000 S   0  0  0  0  0  0  0  0  0  0  0  0
    1.0256    0.0000    0.0000 O   0  0  0  0  0  0  0  0  0  0  0  0
    2.0000    0.9744    0.0000 F   0  0  0  0  0  0  0  0  0  0  0  0
    0.0000    0.9744    0.0000 C   0  0  0  0  0  0  0  0  0  0  0  0
  1  2  2  0  0  0  0 
  2  3  2  0  0  0  0 
  2  4  1  0  0  0  0 
  2  5  1  0  0  0  0 
M  END
> <Name>
Methanesulphonyl fluoride

> <Source>
NIST2DMolFile

> <Tox>
4.691

> <CAS>
558-25-8

$$$$

  CDK

 24 26  0  0  0  0  0  0  0  0999 V2000
    7.1945    1.7487    0.0000 C   0  0  0  0  0  0  0  0  0  0  0  0
    8.0938    1.2490    0.0000 O   0  0  0  0  0  0  0  0  0  0  0  0
    7.1945    2.7479    0.0000 C   0  0  0  0  0  0  0  0  0  0  0  0
    6.3451    1.1991    0.0000 O   0  0  0  0  0  0  0  0  0  0  0  0
    6.3451    3.2475    0.0000 C   0  0  0  0  0  0  0  0  0  0  0  0
    8.0938    3.1975    0.0000 C   0  0  0  0  0  0  0  0  0  0  0  0
    5.4958    1.6987    0.0000 C   0  0  0  0  0  0  0  0  0  0  0  0
    5.4958    2.6979    0.0000 C   0  0  0  0  0  0  0  0  0  0  0  0
    6.3451    4.1968    0.0000 C   0  0  0  0  0  0  0  0  0  0  0  0
    8.0938    4.1968    0.0000 C   0  0  0  0  0  0  0  0  0  0  0  0
    4.5965    1.1991    0.0000 C   0  0  0  0  0  0  0  0  0  0  0  0
    4.5965    3.1975    0.0000 C   0  0  0  0  0  0  0  0  0  0  0  0
    7.1945    4.6964    0.0000 C   0  0  0  0  0  0  0  0  0  0  0  0
    3.7471    1.6987    0.0000 C   0  0  0  0  0  0  0  0  0  0  0  0
    3.7471    2.6979    0.0000 C   0  0  0  0  0  0  0  0  0  0  0  0
    2.8978    1.1991    0.0000 O   0  0  0  0  0  0  0  0  0  0  0  0
    1.9985    1.6987    0.0000 P   0  0  0  0  0  0  0  0  0  0  0  0
    1.1491    2.1983    0.0000 O   0  0  0  0  0  0  0  0  0  0  0  0
    1.4988    0.8493    0.0000 O   0  0  0  0  0  0  0  0  0  0  0  0
    2.4981    2.5980    0.0000 S   0  0  0  0  0  0  0  0  0  0  0  0
    1.1491    3.1975    0.0000 C   0  0  0  0  0  0  0  0  0  0  0  0
    0.4996    0.8493    0.0000 C   0  0  0  0  0  0  0  0  0  0  0  0
    0.2998    3.6972    0.0000 C   0  0  0  0  0  0  0  0  0  0  0  0
    0.0000    0.0000    0.0000 C   0  0  0  0  0  0  0  0  0  0  0  0
  1  2  2  0  0  0  0 
  3  1  1  0  0  0  0 
  1  4  1  0  0  0  0 
  5  3  2  0  0  0  0 
  6  3  1  0  0  0  0 
  4  7  1  0  0  0  0 
  8  5  1  0  0  0  0 
  5  9  1  0  0  0  0 
 10  6  1  0  0  0  0 
  8  7  2  0  0  0  0 
  7 11  1  0  0  0  0 
 12  8  1  0  0  0  0 
  9 13  1  0  0  0  0 
 13 10  1  0  0  0  0 
 11 14  2  0  0  0  0 
 15 12  2  0  0  0  0 
 14 15  1  0  0  0  0 
 14 16  1  0  0  0  0 
 16 17  1  0  0  0  0 
 17 18  1  0  0  0  0 
 17 19  1  0  0  0  0 
 17 20  2  0  0  0  0 
 18 21  1  0  0  0  0 
 19 22  1  0  0  0  0 
 21 23  1  0  0  0  0 
 22 24  1  0  0  0  0 
M  END
> <Name>
1-Cyclohexene-1-carboxylic acid, 2-(2,4-dihydroxyphenyl)-, delta-lactone, O-ester with O,O-diethyl phosphorothioate

> <Source>
NIST2DMolFile

> <Tox>
3.740

> <CAS>
572-48-5

$$$$

  CDK

  9  9  0  0  0  0  0  0  0  0999 V2000
    3.4525   -1.9814    0.0000 C   0  0  0  0  0  0  0  0  0  0  0  0
    3.4525   -3.3238    0.0000 C   0  0  0  0  0  0  0  0  0  0  0  0
    2.2986   -1.3194    0.0000 C   0  0  0  0  0  0  0  0  0  0  0  0
    4.5972   -1.3194    0.0000 C   0  0  0  0  0  0  0  0  0  0  0  0
    2.2986   -3.9857    0.0000 C   0  0  0  0  0  0  0  0  0  0  0  0
    1.1447   -1.9814    0.0000 C   0  0  0  0  0  0  0  0  0  0  0  0
    2.2986   -0.0000    0.0000 O   0  0  0  0  0  0  0  0  0  0  0  0
    1.1447   -3.3238    0.0000 C   0  0  0  0  0  0  0  0  0  0  0  0
    0.0000   -1.3194    0.0000 C   0  0  0  0  0  0  0  0  0  0  0  0
  1  2  1  0  0  0  0 
  1  3  2  0  0  0  0 
  1  4  1  0  0  0  0 
  2  5  2  0  0  0  0 
  3  6  1  0  0  0  0 
  3  7  1  0  0  0  0 
  5  8  1  0  0  0  0 
  6  8  2  0  0  0  0 
  6  9  1  0  0  0  0 
M  END
> <Name>
Phenol, 2,6-dimethyl-

> <Source>
DSSTox2DMolFile

> <Tox>
2.616

> <CAS>
576-26-1

$$$$

  CDK

 11 11  0  0  0  0  0  0  0  0999 V2000
    2.3093   -1.3340    0.0000 C   0  0  0  0  0  0  0  0  0  0  0  0
    3.4455   -2.0057    0.0000 C   0  0  0  0  0  0  0  0  0  0  0  0
    1.1546   -2.0057    0.0000 C   0  0  0  0  0  0  0  0  0  0  0  0
    2.3093   -0.0000    0.0000 N   0  0  0  0  0  0  0  0  0  0  0  0
    3.4455   -3.3351    0.0000 C   0  0  0  0  0  0  0  0  0  0  0  0
    4.6002   -1.3340    0.0000 C   0  0  0  0  0  0  0  0  0  0  0  0
    1.1546   -3.3351    0.0000 C   0  0  0  0  0  0  0  0  0  0  0  0
    0.0000   -1.3340    0.0000 C   0  0  0  0  0  0  0  0  0  0  0  0
    2.3093   -3.9929    0.0000 C   0  0  0  0  0  0  0  0  0  0  0  0
    4.6002   -0.0000    0.0000 C   0  0  0  0  0  0  0  0  0  0  0  0
    0.0000   -0.0000    0.0000 C   0  0  0  0  0  0  0  0  0  0  0  0
  1  2  2  0  0  0  0 
  1  3  1  0  0  0  0 
  1  4  1  0  0  0  0 
  2  5  1  0  0  0  0 
  2  6  1  0  0  0  0 
  7  3  2  0  0  0  0 
  3  8  1  0  0  0  0 
  5  9  2  0  0  0  0 
  6 10  1  0  0  0  0 
  9  7  1  0  0  0  0 
  8 11  1  0  0  0  0 
M  END
> <Name>
Benzenamine, 2,6-diethyl-

> <Source>
DSSTox2DMolFile

> <Tox>
1.919

> <CAS>
579-66-8

$$$$

  CDK

 13 14  0  0  0  0  0  0  0  0999 V2000
   -0.4220    0.8925    0.0000 C   0  0  0  0  0  0  0  0  0  0  0  0
   -1.3820   -0.0972    0.0000 C   0  0  0  0  0  0  0  0  0  0  0  0
    0.9543    0.5507    0.0000 C   0  0  0  0  0  0  0  0  0  0  0  0
   -0.9962   -1.4667    0.0000 C   0  0  0  0  0  0  0  0  0  0  0  0
   -2.8360    0.2566    0.0000 N   0  0  0  0  0  0  0  0  0  0  0  0
    1.3349   -0.8070    0.0000 C   0  0  0  0  0  0  0  0  0  0  0  0
    1.9589    1.5576    0.0000 C   0  0  0  0  0  0  0  0  0  0  0  0
    0.3274   -1.8086    0.0000 C   0  0  0  0  0  0  0  0  0  0  0  0
   -3.6708   -0.6259    0.0000 O   0  0  0  0  0  0  0  0  0  0  0  0
   -3.1631    1.4281    0.0000 O   0  0  0  0  0  0  0  0  0  0  0  0
    2.7154   -1.1428    0.0000 C   0  0  0  0  0  0  0  0  0  0  0  0
    3.2817    1.2076    0.0000 C   0  0  0  0  0  0  0  0  0  0  0  0
    3.6632   -0.1552    0.0000 C   0  0  0  0  0  0  0  0  0  0  0  0
  1  2  1  0  0  0  0 
  1  3  2  0  0  0  0 
  2  4  2  0  0  0  0 
  2  5  1  0  0  0  0 
  6  3  1  0  0  0  0 
  7  3  1  0  0  0  0 
  4  8  1  0  0  0  0 
  5  9  2  0  0  0  0 
  5 10  1  0  0  0  0 
  8  6  2  0  0  0  0 
  6 11  1  0  0  0  0 
 12  7  2  0  0  0  0 
 11 13  2  0  0  0  0 
 13 12  1  0  0  0  0 
M  CHG  1   5   1
M  CHG  1  10  -1
M  END
> <Name>
Naphthalene, 2-nitro-

> <Source>
DougDB3DMolFile

> <Tox>
1.595

> <CAS>
581-89-5

$$$$

  CDK

  8  8  0  0  0  0  0  0  0  0999 V2000
    0.7071    1.3509   -0.0001 C   0  0  0  0  0  0  0  0  0  0  0  0
   -0.5319    0.6975    0.0004 C   0  0  0  0  0  0  0  0  0  0  0  0
    1.8752    0.6733   -0.0003 N   0  0  0  0  0  0  0  0  0  0  0  0
   -0.5508   -0.7052    0.0003 C   0  0  0  0  0  0  0  0  0  0  0  0
   -1.7845    1.4921    0.0001 C   0  0  0  0  0  0  0  0  0  0  0  0
    1.8606   -0.6796    0.0000 C   0  0  0  0  0  0  0  0  0  0  0  0
    0.6646   -1.3937    0.0003 C   0  0  0  0  0  0  0  0  0  0  0  0
   -1.8304   -1.4573   -0.0004 C   0  0  0  0  0  0  0  0  0  0  0  0
  1  2  1  0  0  0  0 
  1  3  2  0  0  0  0 
  2  4  2  0  0  0  0 
  2  5  1  0  0  0  0 
  6  3  1  0  0  0  0 
  4  7  1  0  0  0  0 
  4  8  1  0  0  0  0 
  7  6  2  0  0  0  0 
M  END
> <Name>
Pyridine, 3,4-dimethyl-

> <Source>
DougDB3DMolFile

> <Tox>
2.199

> <CAS>
583-58-4

$$$$

  CDK

 10 10  0  0  0  0  0  0  0  0999 V2000
    1.1393   -1.3371    0.0000 C   0  0  0  0  0  0  0  0  0  0  0  0
    2.2965   -1.9907    0.0000 C   0  0  0  0  0  0  0  0  0  0  0  0
    0.0000   -1.9907    0.0000 C   0  0  0  0  0  0  0  0  0  0  0  0
    1.1393   -0.0000    0.0000 C   0  0  0  0  0  0  0  0  0  0  0  0
    2.2965   -3.3278    0.0000 C   0  0  0  0  0  0  0  0  0  0  0  0
    0.0000   -3.3278    0.0000 C   0  0  0  0  0  0  0  0  0  0  0  0
    1.1393   -4.0054    0.0000 C   0  0  0  0  0  0  0  0  0  0  0  0
    1.1393   -5.3365    0.0000 C   0  0  0  0  0  0  0  0  0  0  0  0
    2.2965   -5.9961    0.0000 C   0  0  0  0  0  0  0  0  0  0  0  0
    0.0000   -5.9961    0.0000 C   0  0  0  0  0  0  0  0  0  0  0  0
  1  2  2  0  0  0  0 
  1  3  1  0  0  0  0 
  1  4  1  0  0  0  0 
  2  5  1  0  0  0  0 
  6  3  1  0  0  0  0 
  5  7  1  0  0  0  0 
  7  6  1  0  0  0  0 
  7  8  2  0  0  0  0 
  8  9  1  0  0  0  0 
  8 10  1  0  0  0  0 
M  END
> <Name>
Cyclohexene, 3-methyl-6-(1-methylethylidene)- (9CI)

> <Source>
DSSTox2DMolFile

> <Tox>
1.492

> <CAS>
586-62-9

$$$$

  CDK

  8  8  0  0  0  0  0  0  0  0999 V2000
    1.4647   -0.0489    0.0762 C   0  0  0  0  0  0  0  0  0  0  0  0
    0.5377   -1.2309    0.2584 C   0  0  0  0  0  0  0  0  0  0  0  0
    0.7939    1.2430   -0.3381 C   0  0  0  0  0  0  0  0  0  0  0  0
    2.6655   -0.1307    0.2517 O   0  0  0  0  0  0  0  0  0  0  0  0
   -0.6709   -1.1155   -0.6525 C   0  0  0  0  0  0  0  0  0  0  0  0
   -0.6369    1.2929    0.1652 C   0  0  0  0  0  0  0  0  0  0  0  0
   -1.4930    0.1513   -0.3920 C   0  0  0  0  0  0  0  0  0  0  0  0
   -2.6496   -0.1359    0.5524 C   0  0  0  0  0  0  0  0  0  0  0  0
  1  2  1  0  0  0  0 
  1  3  1  0  0  0  0 
  1  4  2  0  0  0  0 
  2  5  1  0  0  0  0 
  6  3  1  0  0  0  0 
  5  7  1  0  0  0  0 
  7  6  1  0  0  0  0 
  7  8  1  0  0  0  0 
M  END
> <Name>
Cyclohexanone, 4-methyl-

> <Source>
DougDB3DMolFile

> <Tox>
2.147

> <CAS>
589-92-4

$$$$

  CDK

  4  3  0  0  0  0  0  0  0  0999 V2000
   -0.4362    0.4904    0.0000 C   0  0  0  0  0  0  0  0  0  0  0  0
    0.4360   -0.4897    0.0000 C   0  0  0  0  0  0  0  0  0  0  0  0
   -2.2569   -0.0164    0.0000 Br  0  0  0  0  0  0  0  0  0  0  0  0
    2.2569    0.0163    0.0000 Br  0  0  0  0  0  0  0  0  0  0  0  0
  1  2  2  0  0  0  0 
  1  3  1  0  0  0  0 
  2  4  1  0  0  0  0 
M  END
> <Name>
Ethene, 1,2-dibromo-, (E)- (9CI)

> <Source>
DougDB3DMolFile

> <Tox>
3.477

> <CAS>
590-12-5

$$$$

  CDK

  6  5  0  0  0  0  0  0  0  0999 V2000
    1.4633   -0.2919    0.3601 C   0  0  0  0  0  0  0  0  0  0  0  0
    0.2932    0.4880   -0.2363 C   0  0  0  0  0  0  0  0  0  0  0  0
    2.7871    0.1346   -0.1274 N   0  0  0  0  0  0  0  0  0  0  0  0
   -1.0543    0.0120    0.3164 C   0  0  0  0  0  0  0  0  0  0  0  0
   -2.1452    1.0229   -0.0314 C   0  0  0  0  0  0  0  0  0  0  0  0
   -1.3614   -1.3571   -0.1725 N   0  0  0  0  0  0  0  0  0  0  0  0
  1  2  1  0  0  0  0 
  1  3  1  0  0  0  0 
  2  4  1  0  0  0  0 
  4  5  1  0  0  0  0 
  4  6  1  0  0  0  0 
M  END
> <Name>
1-Methyltrimethylenediamine

> <Source>
DougDB3DMolFile

> <Tox>
1.815

> <CAS>
590-88-5

$$$$

  CDK

  7  6  0  0  0  0  0  0  0  0999 V2000
    1.7335    1.4859    0.0000 N   0  0  0  0  0  0  0  0  0  0  0  0
    0.8915    0.9906    0.0000 C   0  0  0  0  0  0  0  0  0  0  0  0
    2.5755    1.0401    0.0000 C   0  0  0  0  0  0  0  0  0  0  0  0
    0.8915    0.0000    0.0000 C   0  0  0  0  0  0  0  0  0  0  0  0
    0.0000    1.4859    0.0000 O   0  0  0  0  0  0  0  0  0  0  0  0
    2.5755    0.0000    0.0000 N   0  0  0  0  0  0  0  0  0  0  0  0
    3.4670    1.5354    0.0000 S   0  0  0  0  0  0  0  0  0  0  0  0
  1  2  1  0  0  0  0 
  1  3  1  0  0  0  0 
  2  4  1  0  0  0  0 
  2  5  2  0  0  0  0 
  3  6  1  0  0  0  0 
  3  7  2  0  0  0  0 
M  END
> <Name>
Acetamide, N-(aminothioxomethyl)-

> <Source>
NIST2DMolFile

> <Tox>
3.373

> <CAS>
591-08-2

$$$$

  CDK

  7  7  0  0  0  0  0  0  0  0999 V2000
    0.7009    0.0000    0.0000 C   0  0  0  0  0  0  0  0  0  0  0  0
    1.3549   -1.2169    0.0000 C   0  0  0  0  0  0  0  0  0  0  0  0
    1.3550    1.2169    0.0000 C   0  0  0  0  0  0  0  0  0  0  0  0
   -1.2694    0.0000    0.0000 I   0  0  0  0  0  0  0  0  0  0  0  0
    2.7485   -1.2099    0.0000 C   0  0  0  0  0  0  0  0  0  0  0  0
    2.7485    1.2099    0.0000 C   0  0  0  0  0  0  0  0  0  0  0  0
    3.4386    0.0000    0.0000 C   0  0  0  0  0  0  0  0  0  0  0  0
  1  2  1  0  0  0  0 
  1  3  2  0  0  0  0 
  1  4  1  0  0  0  0 
  2  5  2  0  0  0  0 
  6  3  1  0  0  0  0 
  5  7  1  0  0  0  0 
  7  6  2  0  0  0  0 
M  END
> <Name>
Benzene, iodo-

> <Source>
DougDB3DMolFile

> <Tox>
2.067

> <CAS>
591-50-4

$$$$

  CDK

  8  7  0  0  0  0  0  0  0  0999 V2000
    3.9913   -0.0000    0.0000 N   0  0  0  0  0  0  0  0  0  0  0  0
    4.6555   -1.1549    0.0000 C   0  0  0  0  0  0  0  0  0  0  0  0
    5.9839   -1.1549    0.0000 O   0  0  0  0  0  0  0  0  0  0  0  0
    3.9913   -2.3038    0.0000 N   0  0  0  0  0  0  0  0  0  0  0  0
    2.6569   -2.3038    0.0000 C   0  0  0  0  0  0  0  0  0  0  0  0
    1.9926   -1.1549    0.0000 C   0  0  0  0  0  0  0  0  0  0  0  0
    0.6642   -1.1549    0.0000 C   0  0  0  0  0  0  0  0  0  0  0  0
    0.0000   -0.0000    0.0000 C   0  0  0  0  0  0  0  0  0  0  0  0
  1  2  1  0  0  0  0 
  2  3  2  0  0  0  0 
  2  4  1  0  0  0  0 
  4  5  1  0  0  0  0 
  5  6  1  0  0  0  0 
  6  7  1  0  0  0  0 
  7  8  1  0  0  0  0 
M  END
> <Name>
Urea, butyl-

> <Source>
DSSTox2DMolFile

> <Tox>
1.966

> <CAS>
592-31-4

$$$$

  CDK

  7  6  0  0  0  0  0  0  0  0999 V2000
    3.4613    0.5016    0.0000 C   0  0  0  0  0  0  0  0  0  0  0  0
    2.6085    0.0000    0.0000 S   0  0  0  0  0  0  0  0  0  0  0  0
    4.3642    0.0502    0.0000 C   0  0  0  0  0  0  0  0  0  0  0  0
    1.7557    0.5016    0.0000 C   0  0  0  0  0  0  0  0  0  0  0  0
    5.2170    0.5518    0.0000 C   0  0  0  0  0  0  0  0  0  0  0  0
    0.8528    0.0000    0.0000 C   0  0  0  0  0  0  0  0  0  0  0  0
    0.0000    0.5016    0.0000 C   0  0  0  0  0  0  0  0  0  0  0  0
  1  2  1  0  0  0  0 
  1  3  1  0  0  0  0 
  2  4  1  0  0  0  0 
  3  5  2  0  0  0  0 
  4  6  1  0  0  0  0 
  6  7  2  0  0  0  0 
M  END
> <Name>
1-Propene, 3,3'-thiobis-

> <Source>
NIST2DMolFile

> <Tox>
1.583

> <CAS>
592-88-1

$$$$

  CDK

  6  5  0  0  0  0  0  0  0  0999 V2000
    1.1503   -1.1537    0.0000 C   0  0  0  0  0  0  0  0  0  0  0  0
    0.4870   -0.0000    0.0000 Cl  0  0  0  0  0  0  0  0  0  0  0  0
    1.8169   -2.3040    0.0000 Cl  0  0  0  0  0  0  0  0  0  0  0  0
    0.0000   -1.8169    0.0000 Cl  0  0  0  0  0  0  0  0  0  0  0  0
    2.3040   -0.4870    0.0000 S   0  0  0  0  0  0  0  0  0  0  0  0
    3.4542   -1.1537    0.0000 Cl  0  0  0  0  0  0  0  0  0  0  0  0
  1  2  1  0  0  0  0 
  1  3  1  0  0  0  0 
  1  4  1  0  0  0  0 
  1  5  1  0  0  0  0 
  5  6  1  0  0  0  0 
M  END
> <Name>
Methanesulfenyl chloride, trichloro-

> <Source>
DSSTox2DMolFile

> <Tox>
3.352

> <CAS>
594-42-3

$$$$

  CDK

  7  6  0  0  0  0  0  0  0  0999 V2000
    1.3304   -3.3260    0.0000 Cl  0  0  0  0  0  0  0  0  0  0  0  0
    1.3304   -1.9956    0.0000 C   0  0  0  0  0  0  0  0  0  0  0  0
    2.6608   -1.9956    0.0000 Cl  0  0  0  0  0  0  0  0  0  0  0  0
    1.3304   -0.6652    0.0000 N   0  0  0  0  0  0  0  0  0  0  0  0
    0.0000   -1.9956    0.0000 C   0  0  0  0  0  0  0  0  0  0  0  0
    2.4812   -0.0000    0.0000 O   0  0  0  0  0  0  0  0  0  0  0  0
    0.1796   -0.0000    0.0000 O   0  0  0  0  0  0  0  0  0  0  0  0
  1  2  1  0  0  0  0 
  2  3  1  0  0  0  0 
  2  4  1  0  0  0  0 
  2  5  1  0  0  0  0 
  4  6  2  0  0  0  0 
  4  7  1  0  0  0  0 
M  CHG  1   4   1
M  CHG  1   7  -1
M  END
> <Name>
Ethane, 1,1-dichloro-1-nitro-

> <Source>
DSSTox2DMolFile

> <Tox>
2.545

> <CAS>
594-72-9

$$$$

  CDK

  7  6  0  0  0  0  0  0  0  0999 V2000
    1.3350   -0.0000    0.0000 C   0  0  0  0  0  0  0  0  0  0  0  0
    1.9939   -1.1412    0.0000 C   0  0  0  0  0  0  0  0  0  0  0  0
    0.0000   -0.0000    0.0000 O   0  0  0  0  0  0  0  0  0  0  0  0
    3.1480   -0.4823    0.0000 C   0  0  0  0  0  0  0  0  0  0  0  0
    2.6657   -2.2996    0.0000 C   0  0  0  0  0  0  0  0  0  0  0  0
    0.8527   -1.8173    0.0000 C   0  0  0  0  0  0  0  0  0  0  0  0
    4.3064   -1.1412    0.0000 O   0  0  0  0  0  0  0  0  0  0  0  0
  1  2  1  0  0  0  0 
  1  3  2  0  0  0  0 
  2  4  1  0  0  0  0 
  2  5  1  0  0  0  0 
  2  6  1  0  0  0  0 
  4  7  1  0  0  0  0 
M  END
> <Name>
Hydracrylaldehyde, 2,2-dimethyl- (6CI,7CI,8CI)

> <Source>
DSSTox2DMolFile

> <Tox>
1.504

> <CAS>
597-31-9

$$$$

  CDK

  5  4  0  0  0  0  0  0  0  0999 V2000
    0.0000   -1.9945    0.0000 N   0  0  0  0  0  0  0  0  0  0  0  0
    1.1511   -1.3308    0.0000 C   0  0  0  0  0  0  0  0  0  0  0  0
    1.1511   -0.0000    0.0000 O   0  0  0  0  0  0  0  0  0  0  0  0
    2.3056   -1.9945    0.0000 O   0  0  0  0  0  0  0  0  0  0  0  0
    3.4567   -1.3308    0.0000 C   0  0  0  0  0  0  0  0  0  0  0  0
  1  2  1  0  0  0  0 
  2  3  2  0  0  0  0 
  2  4  1  0  0  0  0 
  4  5  1  0  0  0  0 
M  END
> <Name>
Carbamic acid, methyl ester

> <Source>
DSSTox2DMolFile

> <Tox>
1.478

> <CAS>
598-55-0

$$$$

  CDK

  5  4  0  0  0  0  0  0  0  0999 V2000
    1.9371    1.4834    1.7032 O   0  0  0  0  0  0  0  0  0  0  0  0
    0.7245    1.0896    1.1270 C   0  0  0  0  0  0  0  0  0  0  0  0
    3.2199    1.0608    1.0001 N   0  0  0  0  0  0  0  0  0  0  0  0
    3.1186    0.4153    0.0000 O   0  0  0  0  0  0  0  0  0  0  0  0
    4.1474    1.4761    1.6131 O   0  0  0  0  0  0  0  0  0  0  0  0
  1  2  1  0  0  0  0 
  1  3  1  0  0  0  0 
  3  4  2  0  0  0  0 
  3  5  2  0  0  0  0 
M  END
> <Name>
Nitric acid, methyl ester

> <Source>
NIST3DMolFile

> <Tox>
2.350

> <CAS>
598-58-3

$$$$

  CDK

  9  8  0  0  0  0  0  0  0  0999 V2000
    2.5943    1.9956    0.0000 C   0  0  0  0  0  0  0  0  0  0  0  0
    1.7462    1.4967    0.0000 N   0  0  0  0  0  0  0  0  0  0  0  0
    2.5943    2.9934    0.0000 C   0  0  0  0  0  0  0  0  0  0  0  0
    3.4923    1.4967    0.0000 C   0  0  0  0  0  0  0  0  0  0  0  0
    0.8980    1.9956    0.0000 C   0  0  0  0  0  0  0  0  0  0  0  0
    1.7462    0.4989    0.0000 N   0  0  0  0  0  0  0  0  0  0  0  0
    0.8980    2.9934    0.0000 C   0  0  0  0  0  0  0  0  0  0  0  0
    0.0000    1.4967    0.0000 C   0  0  0  0  0  0  0  0  0  0  0  0
    0.8980    0.0000    0.0000 O   0  0  0  0  0  0  0  0  0  0  0  0
  1  2  1  0  0  0  0 
  1  3  1  0  0  0  0 
  1  4  1  0  0  0  0 
  2  5  1  0  0  0  0 
  2  6  1  0  0  0  0 
  5  7  1  0  0  0  0 
  5  8  1  0  0  0  0 
  6  9  2  0  0  0  0 
M  END
> <Name>
Diethylamine, 1,1'-dimethyl-N-nitroso- (9CI,7CI,8CI)

> <Source>
NIST2DMolFile

> <Tox>
2.185

> <CAS>
601-77-4

$$$$

  CDK

 27 29  0  0  0  0  0  0  0  0999 V2000
    8.0660   -0.6641    0.0000 C   0  0  0  0  0  0  0  0  0  0  0  0
    8.0660   -1.9923    0.0000 C   0  0  0  0  0  0  0  0  0  0  0  0
    6.9176   -0.0000    0.0000 C   0  0  0  0  0  0  0  0  0  0  0  0
    6.9176   -2.6564    0.0000 C   0  0  0  0  0  0  0  0  0  0  0  0
    5.7693   -0.6641    0.0000 C   0  0  0  0  0  0  0  0  0  0  0  0
    6.9176   -3.9984    0.0000 C   0  0  0  0  0  0  0  0  0  0  0  0
    5.7693   -1.9923    0.0000 N   0  0  0  0  0  0  0  0  0  0  0  0
    8.0660   -4.6625    0.0000 C   0  0  0  0  0  0  0  0  0  0  0  0
    5.7693   -4.6625    0.0000 C   0  0  0  0  0  0  0  0  0  0  0  0
    9.2281   -3.9984    0.0000 C   0  0  0  0  0  0  0  0  0  0  0  0
    8.0660   -5.9907    0.0000 C   0  0  0  0  0  0  0  0  0  0  0  0
    5.7693   -5.9907    0.0000 C   0  0  0  0  0  0  0  0  0  0  0  0
    4.6071   -3.9984    0.0000 C   0  0  0  0  0  0  0  0  0  0  0  0
   10.3764   -4.6625    0.0000 C   0  0  0  0  0  0  0  0  0  0  0  0
    9.2281   -6.6548    0.0000 C   0  0  0  0  0  0  0  0  0  0  0  0
    4.6071   -6.6548    0.0000 C   0  0  0  0  0  0  0  0  0  0  0  0
    3.4588   -4.6625    0.0000 C   0  0  0  0  0  0  0  0  0  0  0  0
   10.3764   -5.9907    0.0000 C   0  0  0  0  0  0  0  0  0  0  0  0
    3.4588   -5.9907    0.0000 C   0  0  0  0  0  0  0  0  0  0  0  0
   11.5248   -6.6548    0.0000 O   0  0  0  0  0  0  0  0  0  0  0  0
    2.3105   -6.6548    0.0000 O   0  0  0  0  0  0  0  0  0  0  0  0
   12.6869   -5.9907    0.0000 C   0  0  0  0  0  0  0  0  0  0  0  0
    1.1483   -5.9907    0.0000 C   0  0  0  0  0  0  0  0  0  0  0  0
   13.8353   -6.6548    0.0000 C   0  0  0  0  0  0  0  0  0  0  0  0
   12.6869   -4.6625    0.0000 O   0  0  0  0  0  0  0  0  0  0  0  0
    0.0000   -6.6548    0.0000 C   0  0  0  0  0  0  0  0  0  0  0  0
    1.1483   -4.6625    0.0000 O   0  0  0  0  0  0  0  0  0  0  0  0
  1  2  2  0  0  0  0 
  1  3  1  0  0  0  0 
  2  4  1  0  0  0  0 
  5  3  2  0  0  0  0 
  4  6  1  0  0  0  0 
  4  7  2  0  0  0  0 
  7  5  1  0  0  0  0 
  6  8  1  0  0  0  0 
  6  9  1  0  0  0  0 
  8 10  2  0  0  0  0 
  8 11  1  0  0  0  0 
  9 12  2  0  0  0  0 
  9 13  1  0  0  0  0 
 10 14  1  0  0  0  0 
 15 11  2  0  0  0  0 
 12 16  1  0  0  0  0 
 17 13  2  0  0  0  0 
 14 18  2  0  0  0  0 
 18 15  1  0  0  0  0 
 16 19  2  0  0  0  0 
 19 17  1  0  0  0  0 
 18 20  1  0  0  0  0 
 19 21  1  0  0  0  0 
 20 22  1  0  0  0  0 
 21 23  1  0  0  0  0 
 22 24  1  0  0  0  0 
 22 25  2  0  0  0  0 
 23 26  1  0  0  0  0 
 23 27  2  0  0  0  0 
M  END
> <Name>
Phenol, 4,4'-(2-pyridinylmethylene)bis-, diacetate (ester)

> <Source>
DSSTox2DMolFile

> <Tox>
1.922

> <CAS>
603-50-9

$$$$

  CDK

 12 12  0  0  0  0  0  0  0  0999 V2000
    0.0000   -2.3036    0.0000 O   0  0  0  0  0  0  0  0  0  0  0  0
    1.3300   -2.3036    0.0000 C   0  0  0  0  0  0  0  0  0  0  0  0
    1.9950   -1.1491    0.0000 C   0  0  0  0  0  0  0  0  0  0  0  0
    1.9950   -3.4580    0.0000 C   0  0  0  0  0  0  0  0  0  0  0  0
    1.3300   -0.0000    0.0000 Br  0  0  0  0  0  0  0  0  0  0  0  0
    3.3250   -1.1491    0.0000 C   0  0  0  0  0  0  0  0  0  0  0  0
    3.3250   -3.4580    0.0000 C   0  0  0  0  0  0  0  0  0  0  0  0
    1.3300   -4.6072    0.0000 Br  0  0  0  0  0  0  0  0  0  0  0  0
    3.9901   -0.0000    0.0000 Br  0  0  0  0  0  0  0  0  0  0  0  0
    3.9901   -2.3036    0.0000 C   0  0  0  0  0  0  0  0  0  0  0  0
    3.9901   -4.6072    0.0000 Br  0  0  0  0  0  0  0  0  0  0  0  0
    5.3201   -2.3036    0.0000 Br  0  0  0  0  0  0  0  0  0  0  0  0
  1  2  1  0  0  0  0 
  2  3  2  0  0  0  0 
  2  4  1  0  0  0  0 
  3  5  1  0  0  0  0 
  3  6  1  0  0  0  0 
  7  4  2  0  0  0  0 
  4  8  1  0  0  0  0 
  6  9  1  0  0  0  0 
  6 10  2  0  0  0  0 
 10  7  1  0  0  0  0 
  7 11  1  0  0  0  0 
 10 12  1  0  0  0  0 
M  END
> <Name>
Phenol, pentabromo-

> <Source>
DSSTox2DMolFile

> <Tox>
3.388

> <CAS>
608-71-9

$$$$

  CDK

 16 16  0  0  0  0  0  0  0  0999 V2000
    1.7177    2.4755    0.0000 C   0  0  0  0  0  0  0  0  0  0  0  0
    2.5765    2.9807    0.0000 C   0  0  0  0  0  0  0  0  0  0  0  0
    1.7177    1.5156    0.0000 C   0  0  0  0  0  0  0  0  0  0  0  0
    3.4859    2.4755    0.0000 C   0  0  0  0  0  0  0  0  0  0  0  0
    2.5765    3.9911    0.0000 C   0  0  0  0  0  0  0  0  0  0  0  0
    2.5765    1.0104    0.0000 C   0  0  0  0  0  0  0  0  0  0  0  0
    0.8588    1.0104    0.0000 N   0  0  0  0  0  0  0  0  0  0  0  0
    3.4859    1.5156    0.0000 C   0  0  0  0  0  0  0  0  0  0  0  0
    4.3448    2.9807    0.0000 O   0  0  0  0  0  0  0  0  0  0  0  0
    3.4859    4.4963    0.0000 O   0  0  0  0  0  0  0  0  0  0  0  0
    1.7177    4.4963    0.0000 O   0  0  0  0  0  0  0  0  0  0  0  0
    0.0000    1.5156    0.0000 O   0  0  0  0  0  0  0  0  0  0  0  0
    0.8588    0.0000    0.0000 O   0  0  0  0  0  0  0  0  0  0  0  0
    4.3448    1.0104    0.0000 N   0  0  0  0  0  0  0  0  0  0  0  0
    4.3448    0.0000    0.0000 O   0  0  0  0  0  0  0  0  0  0  0  0
    5.1531    1.5156    0.0000 O   0  0  0  0  0  0  0  0  0  0  0  0
  1  2  2  0  0  0  0 
  3  1  1  0  0  0  0 
  2  4  1  0  0  0  0 
  2  5  1  0  0  0  0 
  6  3  2  0  0  0  0 
  3  7  1  0  0  0  0 
  4  8  2  0  0  0  0 
  4  9  1  0  0  0  0 
  5 10  1  0  0  0  0 
  5 11  2  0  0  0  0 
  8  6  1  0  0  0  0 
  7 12  2  0  0  0  0 
  7 13  2  0  0  0  0 
  8 14  1  0  0  0  0 
 14 15  2  0  0  0  0 
 14 16  2  0  0  0  0 
M  END
> <Name>
Benzoic acid, 2-hydroxy-3,5-dinitro-

> <Source>
NIST2DMolFile

> <Tox>
2.424

> <CAS>
609-99-4

$$$$

  CDK

 10 10  0  0  0  0  0  0  0  0999 V2000
    1.3286   -0.0000    0.0000 C   0  0  0  0  0  0  0  0  0  0  0  0
    1.9930   -1.1551    0.0000 N   0  0  0  0  0  0  0  0  0  0  0  0
    3.3276   -1.1551    0.0000 C   0  0  0  0  0  0  0  0  0  0  0  0
    1.3286   -2.3042    0.0000 N   0  0  0  0  0  0  0  0  0  0  0  0
    3.9919   -0.0000    0.0000 C   0  0  0  0  0  0  0  0  0  0  0  0
    3.9919   -2.3042    0.0000 C   0  0  0  0  0  0  0  0  0  0  0  0
    0.0000   -2.3042    0.0000 O   0  0  0  0  0  0  0  0  0  0  0  0
    5.3206   -0.0000    0.0000 C   0  0  0  0  0  0  0  0  0  0  0  0
    5.3206   -2.3042    0.0000 C   0  0  0  0  0  0  0  0  0  0  0  0
    5.9849   -1.1551    0.0000 C   0  0  0  0  0  0  0  0  0  0  0  0
  1  2  1  0  0  0  0 
  2  3  1  0  0  0  0 
  2  4  1  0  0  0  0 
  3  5  2  0  0  0  0 
  3  6  1  0  0  0  0 
  4  7  2  0  0  0  0 
  5  8  1  0  0  0  0 
  9  6  2  0  0  0  0 
  8 10  2  0  0  0  0 
 10  9  1  0  0  0  0 
M  END
> <Name>
Benzenamine, N-methyl-N-nitroso-

> <Source>
DSSTox2DMolFile

> <Tox>
2.782

> <CAS>
614-00-6

$$$$

  CDK

 12 12  0  0  0  0  0  0  0  0999 V2000
    0.0000    0.0000    0.0000 N   0  0  0  0  0  0  0  0  0  0  0  0
   -1.1200    0.0800   -0.7800 C   0  0  0  0  0  0  0  0  0  0  0  0
    0.7400   -1.1600    0.0000 C   0  0  0  0  0  0  0  0  0  0  0  0
   -1.6400   -1.1400   -1.8200 S   0  0  0  0  0  0  0  0  0  0  0  0
   -1.7600    1.2800   -0.6400 N   0  0  0  0  0  0  0  0  0  0  0  0
    2.1600   -1.1200    0.0000 C   0  0  0  0  0  0  0  0  0  0  0  0
    0.0800   -2.4000    0.0000 C   0  0  0  0  0  0  0  0  0  0  0  0
   -2.9200    1.5600   -1.4200 N   0  0  0  0  0  0  0  0  0  0  0  0
    2.9000    0.1800    0.0000 C   0  0  0  0  0  0  0  0  0  0  0  0
    2.9000   -2.3000    0.0000 C   0  0  0  0  0  0  0  0  0  0  0  0
    0.8400   -3.6000    0.0000 C   0  0  0  0  0  0  0  0  0  0  0  0
    2.2400   -3.5400    0.0000 C   0  0  0  0  0  0  0  0  0  0  0  0
  1  2  1  0  0  0  0 
  1  3  1  0  0  0  0 
  2  4  2  0  0  0  0 
  2  5  1  0  0  0  0 
  3  6  2  0  0  0  0 
  3  7  1  0  0  0  0 
  8  5  1  0  0  0  0 
  6  9  1  0  0  0  0 
  6 10  1  0  0  0  0 
 11  7  2  0  0  0  0 
 10 12  2  0  0  0  0 
 12 11  1  0  0  0  0 
M  END
> <Name>
Hydrazinecarbothioamide, N-(2-methylphenyl)- (9CI)

> <Source>
NIH3DMolFile

> <Tox>
2.957

> <CAS>
614-10-8

$$$$

  CDK

 16 17  0  0  0  0  0  0  0  0999 V2000
   -0.8290    0.3806   -0.4287 C   0  0  0  0  0  0  0  0  0  0  0  0
   -2.2651    0.1138   -0.1475 C   0  0  0  0  0  0  0  0  0  0  0  0
   -0.3671    1.1204   -1.2719 O   0  0  0  0  0  0  0  0  0  0  0  0
    0.0150   -0.3105    0.4077 O   0  0  0  0  0  0  0  0  0  0  0  0
   -3.1724    1.1732   -0.2159 C   0  0  0  0  0  0  0  0  0  0  0  0
   -2.7121   -1.1727    0.1586 C   0  0  0  0  0  0  0  0  0  0  0  0
    1.3927   -0.1681    0.2280 C   0  0  0  0  0  0  0  0  0  0  0  0
   -4.5214    0.9436    0.0294 C   0  0  0  0  0  0  0  0  0  0  0  0
   -4.0639   -1.3937    0.3985 C   0  0  0  0  0  0  0  0  0  0  0  0
    2.0630   -1.0040   -0.6694 C   0  0  0  0  0  0  0  0  0  0  0  0
    2.0882    0.7218    1.0510 C   0  0  0  0  0  0  0  0  0  0  0  0
   -4.9675   -0.3380    0.3363 C   0  0  0  0  0  0  0  0  0  0  0  0
    3.4493   -0.9426   -0.7364 C   0  0  0  0  0  0  0  0  0  0  0  0
    3.4746    0.7673    0.9700 C   0  0  0  0  0  0  0  0  0  0  0  0
    4.1610   -0.0592    0.0781 C   0  0  0  0  0  0  0  0  0  0  0  0
    5.6420    0.0104   -0.0152 C   0  0  0  0  0  0  0  0  0  0  0  0
  1  2  1  0  0  0  0 
  1  3  2  0  0  0  0 
  1  4  1  0  0  0  0 
  2  5  1  0  0  0  0 
  2  6  2  0  0  0  0 
  4  7  1  0  0  0  0 
  5  8  2  0  0  0  0 
  9  6  1  0  0  0  0 
  7 10  1  0  0  0  0 
  7 11  2  0  0  0  0 
  8 12  1  0  0  0  0 
 12  9  2  0  0  0  0 
 10 13  2  0  0  0  0 
 11 14  1  0  0  0  0 
 15 13  1  0  0  0  0 
 15 14  2  0  0  0  0 
 15 16  1  0  0  0  0 
M  END
> <Name>
Benzoic acid, 4-methylphenyl ester

> <Source>
DougDB3DMolFile

> <Tox>
1.905

> <CAS>
614-34-6

$$$$

  CDK

 14 14  0  0  0  0  0  0  0  0999 V2000
    4.6106   -1.3300    0.0000 C   0  0  0  0  0  0  0  0  0  0  0  0
    4.6106   -0.0000    0.0000 O   0  0  0  0  0  0  0  0  0  0  0  0
    3.4580   -1.9990    0.0000 O   0  0  0  0  0  0  0  0  0  0  0  0
    5.7552   -1.9990    0.0000 C   0  0  0  0  0  0  0  0  0  0  0  0
    2.3053   -1.3300    0.0000 O   0  0  0  0  0  0  0  0  0  0  0  0
    6.9078   -1.3300    0.0000 C   0  0  0  0  0  0  0  0  0  0  0  0
    5.7552   -3.3290    0.0000 C   0  0  0  0  0  0  0  0  0  0  0  0
    1.1527   -1.9990    0.0000 C   0  0  0  0  0  0  0  0  0  0  0  0
    8.0605   -1.9990    0.0000 C   0  0  0  0  0  0  0  0  0  0  0  0
    6.9078   -3.9899    0.0000 C   0  0  0  0  0  0  0  0  0  0  0  0
    1.8136   -3.1436    0.0000 C   0  0  0  0  0  0  0  0  0  0  0  0
    0.0000   -2.6600    0.0000 C   0  0  0  0  0  0  0  0  0  0  0  0
    0.4836   -0.8464    0.0000 C   0  0  0  0  0  0  0  0  0  0  0  0
    8.0605   -3.3290    0.0000 C   0  0  0  0  0  0  0  0  0  0  0  0
  1  2  2  0  0  0  0 
  1  3  1  0  0  0  0 
  1  4  1  0  0  0  0 
  3  5  1  0  0  0  0 
  4  6  2  0  0  0  0 
  4  7  1  0  0  0  0 
  5  8  1  0  0  0  0 
  6  9  1  0  0  0  0 
 10  7  2  0  0  0  0 
  8 11  1  0  0  0  0 
  8 12  1  0  0  0  0 
  8 13  1  0  0  0  0 
  9 14  2  0  0  0  0 
 14 10  1  0  0  0  0 
M  END
> <Name>
Benzenecarboperoxoic acid, 1,1-dimethylethyl ester

> <Source>
DSSTox2DMolFile

> <Tox>
2.283

> <CAS>
614-45-9

$$$$

  CDK

  6  5  0  0  0  0  0  0  0  0999 V2000
    4.6116   -1.3281    0.0000 O   0  0  0  0  0  0  0  0  0  0  0  0
    3.4587   -1.9922    0.0000 C   0  0  0  0  0  0  0  0  0  0  0  0
    2.3058   -1.3281    0.0000 C   0  0  0  0  0  0  0  0  0  0  0  0
    2.3058   -0.0000    0.0000 Cl  0  0  0  0  0  0  0  0  0  0  0  0
    1.1529   -1.9922    0.0000 C   0  0  0  0  0  0  0  0  0  0  0  0
    0.0000   -1.3281    0.0000 Cl  0  0  0  0  0  0  0  0  0  0  0  0
  1  2  1  0  0  0  0 
  2  3  1  0  0  0  0 
  4  3  1  0  0  0  0 
  5  3  1  0  0  0  0 
  6  5  1  0  0  0  0 
M  END
> <Name>
1-Propanol, 2,3-dichloro-

> <Source>
DSSTox2DMolFile

> <Tox>
3.156

> <CAS>
616-23-9

$$$$

  CDK

  6  5  0  0  0  0  0  0  0  0999 V2000
    2.3054   -1.3318    0.0000 C   0  0  0  0  0  0  0  0  0  0  0  0
    2.3054   -0.0000    0.0000 O   0  0  0  0  0  0  0  0  0  0  0  0
    1.1527   -2.0023    0.0000 O   0  0  0  0  0  0  0  0  0  0  0  0
    3.4397   -2.0023    0.0000 O   0  0  0  0  0  0  0  0  0  0  0  0
    0.0000   -1.3318    0.0000 C   0  0  0  0  0  0  0  0  0  0  0  0
    4.5924   -1.3318    0.0000 C   0  0  0  0  0  0  0  0  0  0  0  0
  1  2  2  0  0  0  0 
  1  3  1  0  0  0  0 
  1  4  1  0  0  0  0 
  3  5  1  0  0  0  0 
  4  6  1  0  0  0  0 
M  END
> <Name>
Carbonic acid, dimethyl ester

> <Source>
DSSTox2DMolFile

> <Tox>
0.841

> <CAS>
616-38-6

$$$$

  CDK

  6  6  0  0  0  0  0  0  0  0999 V2000
    1.0745   -0.0000    0.0000 N   0  0  0  0  0  0  0  0  0  0  0  0
    2.1456   -0.7846    0.0000 C   0  0  0  0  0  0  0  0  0  0  0  0
    0.0000   -0.7846    0.0000 C   0  0  0  0  0  0  0  0  0  0  0  0
    1.7465   -2.0501    0.0000 C   0  0  0  0  0  0  0  0  0  0  0  0
    3.4112   -0.3684    0.0000 O   0  0  0  0  0  0  0  0  0  0  0  0
    0.4162   -2.0501    0.0000 C   0  0  0  0  0  0  0  0  0  0  0  0
  1  2  1  0  0  0  0 
  1  3  1  0  0  0  0 
  2  4  1  0  0  0  0 
  2  5  2  0  0  0  0 
  3  6  1  0  0  0  0 
  4  6  1  0  0  0  0 
M  END
> <Name>
2-Pyrrolidinone

> <Source>
DSSTox2DMolFile

> <Tox>
2.414

> <CAS>
616-45-5

$$$$

  CDK

  7  6  0  0  0  0  0  0  0  0999 V2000
    1.4088    0.2105   -0.3879 C   0  0  0  0  0  0  0  0  0  0  0  0
   -0.0243    0.0236    0.1266 C   0  0  0  0  0  0  0  0  0  0  0  0
    2.0999    1.3281    0.2911 N   0  0  0  0  0  0  0  0  0  0  0  0
   -0.5700   -1.3257   -0.3522 C   0  0  0  0  0  0  0  0  0  0  0  0
   -0.9350    1.1577   -0.3471 C   0  0  0  0  0  0  0  0  0  0  0  0
    0.1512   -2.4882    0.2906 C   0  0  0  0  0  0  0  0  0  0  0  0
   -2.3014    1.0809    0.2988 C   0  0  0  0  0  0  0  0  0  0  0  0
  1  2  1  0  0  0  0 
  1  3  1  0  0  0  0 
  2  4  1  0  0  0  0 
  2  5  1  0  0  0  0 
  4  6  1  0  0  0  0 
  5  7  1  0  0  0  0 
M  END
> <Name>
Butylamine, 2-ethyl-

> <Source>
DougDB3DMolFile

> <Tox>
2.414

> <CAS>
617-79-8

$$$$

  CDK

 12 12  0  0  0  0  0  0  0  0999 V2000
    2.6616   -0.0000    0.0000 C   0  0  0  0  0  0  0  0  0  0  0  0
    3.9924   -0.0000    0.0000 C   0  0  0  0  0  0  0  0  0  0  0  0
    1.9962   -1.1511    0.0000 C   0  0  0  0  0  0  0  0  0  0  0  0
    4.6578   -1.1511    0.0000 C   0  0  0  0  0  0  0  0  0  0  0  0
    2.6616   -2.3023    0.0000 C   0  0  0  0  0  0  0  0  0  0  0  0
    0.6654   -1.1511    0.0000 C   0  0  0  0  0  0  0  0  0  0  0  0
    5.9885   -1.1511    0.0000 N   0  0  0  0  0  0  0  0  0  0  0  0
    3.9924   -2.3023    0.0000 C   0  0  0  0  0  0  0  0  0  0  0  0
    0.0000   -2.3023    0.0000 O   0  0  0  0  0  0  0  0  0  0  0  0
    0.0000   -0.0000    0.0000 N   0  0  0  0  0  0  0  0  0  0  0  0
    6.6539   -0.0000    0.0000 O   0  0  0  0  0  0  0  0  0  0  0  0
    6.6539   -2.3023    0.0000 O   0  0  0  0  0  0  0  0  0  0  0  0
  1  2  2  0  0  0  0 
  1  3  1  0  0  0  0 
  2  4  1  0  0  0  0 
  5  3  2  0  0  0  0 
  3  6  1  0  0  0  0 
  4  7  1  0  0  0  0 
  4  8  2  0  0  0  0 
  8  5  1  0  0  0  0 
  6  9  2  0  0  0  0 
  6 10  1  0  0  0  0 
  7 11  1  0  0  0  0 
  7 12  2  0  0  0  0 
M  CHG  1   7   1
M  CHG  1  11  -1
M  END
> <Name>
Benzamide, 4-nitro-

> <Source>
DSSTox2DMolFile

> <Tox>
2.543

> <CAS>
619-80-7

$$$$

  CDK

  9  8  0  0  0  0  0  0  0  0999 V2000
    0.0000   -1.9953    0.0000 O   0  0  0  0  0  0  0  0  0  0  0  0
    1.1520   -2.6588    0.0000 N   0  0  0  0  0  0  0  0  0  0  0  0
    2.3040   -1.9953    0.0000 N   0  0  0  0  0  0  0  0  0  0  0  0
    2.3040   -0.6635    0.0000 C   0  0  0  0  0  0  0  0  0  0  0  0
    3.4560   -2.6588    0.0000 C   0  0  0  0  0  0  0  0  0  0  0  0
    1.1520   -0.0000    0.0000 C   0  0  0  0  0  0  0  0  0  0  0  0
    4.6080   -1.9953    0.0000 C   0  0  0  0  0  0  0  0  0  0  0  0
    0.0000   -0.6635    0.0000 C   0  0  0  0  0  0  0  0  0  0  0  0
    4.6080   -0.6635    0.0000 C   0  0  0  0  0  0  0  0  0  0  0  0
  1  2  2  0  0  0  0 
  2  3  1  0  0  0  0 
  3  4  1  0  0  0  0 
  3  5  1  0  0  0  0 
  4  6  1  0  0  0  0 
  5  7  1  0  0  0  0 
  6  8  1  0  0  0  0 
  7  9  1  0  0  0  0 
M  END
> <Name>
1-Propanamine, N-nitroso-N-propyl-

> <Source>
DSSTox2DMolFile

> <Tox>
2.433

> <CAS>
621-64-7

$$$$

  CDK

 10 10  0  0  0  0  0  0  0  0999 V2000
   -0.4854    0.3515    0.0005 C   0  0  0  0  0  0  0  0  0  0  0  0
   -0.0310   -0.9729    0.0034 C   0  0  0  0  0  0  0  0  0  0  0  0
    0.4269    1.4144    0.0013 C   0  0  0  0  0  0  0  0  0  0  0  0
   -1.8655    0.6903   -0.0020 N   0  0  0  0  0  0  0  0  0  0  0  0
    1.3343   -1.2269    0.0060 C   0  0  0  0  0  0  0  0  0  0  0  0
    1.7882    1.1423    0.0038 C   0  0  0  0  0  0  0  0  0  0  0  0
   -2.8817   -0.0560   -0.0019 C   0  0  0  0  0  0  0  0  0  0  0  0
    2.2517   -0.1753    0.0047 C   0  0  0  0  0  0  0  0  0  0  0  0
   -3.9546   -0.5425   -0.0024 O   0  0  0  0  0  0  0  0  0  0  0  0
    3.7104   -0.4551   -0.0090 C   0  0  0  0  0  0  0  0  0  0  0  0
  1  2  1  0  0  0  0 
  1  3  2  0  0  0  0 
  1  4  1  0  0  0  0 
  2  5  2  0  0  0  0 
  6  3  1  0  0  0  0 
  4  7  2  0  0  0  0 
  5  8  1  0  0  0  0 
  8  6  2  0  0  0  0 
  7  9  2  0  0  0  0 
  8 10  1  0  0  0  0 
M  END
> <Name>
Isocyanic acid, p-tolyl ester (7CI,8CI)

> <Source>
DougDB3DMolFile

> <Tox>
1.920

> <CAS>
622-58-2

$$$$

  CDK

 10 10  0  0  0  0  0  0  0  0999 V2000
    0.0000   -0.0000    0.0000 Cl  0  0  0  0  0  0  0  0  0  0  0  0
    0.6654   -1.1511    0.0000 C   0  0  0  0  0  0  0  0  0  0  0  0
    1.9961   -1.1511    0.0000 C   0  0  0  0  0  0  0  0  0  0  0  0
    2.6614   -0.0000    0.0000 C   0  0  0  0  0  0  0  0  0  0  0  0
    2.6614   -2.3021    0.0000 C   0  0  0  0  0  0  0  0  0  0  0  0
    3.9921   -0.0000    0.0000 C   0  0  0  0  0  0  0  0  0  0  0  0
    3.9921   -2.3021    0.0000 C   0  0  0  0  0  0  0  0  0  0  0  0
    4.6575   -1.1511    0.0000 C   0  0  0  0  0  0  0  0  0  0  0  0
    5.9882   -1.1511    0.0000 C   0  0  0  0  0  0  0  0  0  0  0  0
    6.6535   -2.3021    0.0000 Cl  0  0  0  0  0  0  0  0  0  0  0  0
  1  2  1  0  0  0  0 
  2  3  1  0  0  0  0 
  3  4  2  0  0  0  0 
  3  5  1  0  0  0  0 
  4  6  1  0  0  0  0 
  7  5  2  0  0  0  0 
  6  8  2  0  0  0  0 
  8  7  1  0  0  0  0 
  8  9  1  0  0  0  0 
  9 10  1  0  0  0  0 
M  END
> <Name>
p-Xylene, alpha,alpha'-dichloro-

> <Source>
DSSTox2DMolFile

> <Tox>
2.136

> <CAS>
623-25-6

$$$$

  CDK

 11 10  0  0  0  0  0  0  0  0999 V2000
    0.8660    1.4773    0.0000 C   0  0  0  0  0  0  0  0  0  0  0  0
    1.8849    1.4773    0.0000 C   0  0  0  0  0  0  0  0  0  0  0  0
    0.0000    1.0188    0.0000 C   0  0  0  0  0  0  0  0  0  0  0  0
    2.7509    1.0188    0.0000 C   0  0  0  0  0  0  0  0  0  0  0  0
    2.7509    0.0000    0.0000 O   0  0  0  0  0  0  0  0  0  0  0  0
    3.6169    1.4773    0.0000 O   0  0  0  0  0  0  0  0  0  0  0  0
    4.5338    1.0188    0.0000 C   0  0  0  0  0  0  0  0  0  0  0  0
    5.3999    1.4773    0.0000 C   0  0  0  0  0  0  0  0  0  0  0  0
    4.5338    0.0000    0.0000 O   0  0  0  0  0  0  0  0  0  0  0  0
    6.4187    1.4773    0.0000 C   0  0  0  0  0  0  0  0  0  0  0  0
    7.2847    1.0188    0.0000 C   0  0  0  0  0  0  0  0  0  0  0  0
  1  2  2  0  0  0  0 
  1  3  1  0  0  0  0 
  2  4  1  0  0  0  0 
  4  5  2  0  0  0  0 
  4  6  1  0  0  0  0 
  6  7  1  0  0  0  0 
  7  8  1  0  0  0  0 
  7  9  2  0  0  0  0 
  8 10  2  0  0  0  0 
 10 11  1  0  0  0  0 
M  END
> <Name>
2-Butenoic acid, anhydride

> <Source>
NIST2DMolFile

> <Tox>
1.736

> <CAS>
623-68-7

$$$$

  CDK

  6  5  0  0  0  0  0  0  0  0999 V2000
    1.7391    1.4906    0.0000 N   0  0  0  0  0  0  0  0  0  0  0  0
    0.8944    0.9938    0.0000 C   0  0  0  0  0  0  0  0  0  0  0  0
    2.5838    0.9938    0.0000 C   0  0  0  0  0  0  0  0  0  0  0  0
    0.8944    0.0000    0.0000 N   0  0  0  0  0  0  0  0  0  0  0  0
    0.0000    1.4906    0.0000 S   0  0  0  0  0  0  0  0  0  0  0  0
    3.4781    1.4906    0.0000 C   0  0  0  0  0  0  0  0  0  0  0  0
  1  2  1  0  0  0  0 
  1  3  1  0  0  0  0 
  2  4  1  0  0  0  0 
  2  5  2  0  0  0  0 
  3  6  1  0  0  0  0 
M  END
> <Name>
Urea, 1-ethyl-2-thio-

> <Source>
NIST2DMolFile

> <Tox>
3.018

> <CAS>
625-53-6

$$$$

  CDK

 10 10  0  0  0  0  0  0  0  0999 V2000
    4.5983   -1.3325    0.0000 C   0  0  0  0  0  0  0  0  0  0  0  0
    4.5983   -2.6651    0.0000 C   0  0  0  0  0  0  0  0  0  0  0  0
    3.4453   -0.6766    0.0000 C   0  0  0  0  0  0  0  0  0  0  0  0
    5.7513   -0.6766    0.0000 C   0  0  0  0  0  0  0  0  0  0  0  0
    3.4453   -3.3348    0.0000 C   0  0  0  0  0  0  0  0  0  0  0  0
    2.2923   -1.3325    0.0000 C   0  0  0  0  0  0  0  0  0  0  0  0
    6.9044   -0.0000    0.0000 N   0  0  0  0  0  0  0  0  0  0  0  0
    2.2923   -2.6651    0.0000 C   0  0  0  0  0  0  0  0  0  0  0  0
    1.1392   -0.6766    0.0000 C   0  0  0  0  0  0  0  0  0  0  0  0
    0.0000   -0.0000    0.0000 N   0  0  0  0  0  0  0  0  0  0  0  0
  1  2  2  0  0  0  0 
  1  3  1  0  0  0  0 
  1  4  1  0  0  0  0 
  2  5  1  0  0  0  0 
  6  3  2  0  0  0  0 
  4  7  3  0  0  0  0 
  5  8  2  0  0  0  0 
  8  6  1  0  0  0  0 
  6  9  1  0  0  0  0 
  9 10  3  0  0  0  0 
M  END
> <Name>
1,3-Benzenedicarbonitrile

> <Source>
DSSTox2DMolFile

> <Tox>
2.173

> <CAS>
626-17-5

$$$$

  CDK

  9  9  0  0  0  0  0  0  0  0999 V2000
    3.4486    0.0000    0.0000 C   0  0  0  0  0  0  0  0  0  0  0  0
    2.5989    0.4998    0.0000 C   0  0  0  0  0  0  0  0  0  0  0  0
    2.5989    1.4994    0.0000 C   0  0  0  0  0  0  0  0  0  0  0  0
    1.7493    0.0000    0.0000 N   0  0  0  0  0  0  0  0  0  0  0  0
    1.7493    1.9992    0.0000 C   0  0  0  0  0  0  0  0  0  0  0  0
    0.8496    0.4998    0.0000 C   0  0  0  0  0  0  0  0  0  0  0  0
    0.8496    1.4994    0.0000 N   0  0  0  0  0  0  0  0  0  0  0  0
    1.7493    2.9988    0.0000 O   0  0  0  0  0  0  0  0  0  0  0  0
    0.0000    0.0000    0.0000 O   0  0  0  0  0  0  0  0  0  0  0  0
  1  2  1  0  0  0  0 
  3  2  2  0  0  0  0 
  2  4  1  0  0  0  0 
  5  3  1  0  0  0  0 
  4  6  1  0  0  0  0 
  7  5  1  0  0  0  0 
  5  8  2  0  0  0  0 
  6  7  1  0  0  0  0 
  6  9  2  0  0  0  0 
M  END
> <Name>
2(1H)-Pyrimidinone, 4-hydroxy-6-methyl- (8CI)

> <Source>
NIST2DMolFile

> <Tox>
0.291

> <CAS>
626-48-2

$$$$

  CDK

  7  6  0  0  0  0  0  0  0  0999 V2000
    1.1888    0.2410    0.0000 O   0  0  0  0  0  0  0  0  0  0  0  0
    2.4024   -0.4957   -0.0007 C   0  0  0  0  0  0  0  0  0  0  0  0
    0.0350   -0.5853   -0.0011 C   0  0  0  0  0  0  0  0  0  0  0  0
    3.5370    0.5113    0.0013 C   0  0  0  0  0  0  0  0  0  0  0  0
   -1.1774    0.3415   -0.0015 C   0  0  0  0  0  0  0  0  0  0  0  0
   -2.4650   -0.4666    0.0022 C   0  0  0  0  0  0  0  0  0  0  0  0
   -3.6803    0.4329   -0.0001 C   0  0  0  0  0  0  0  0  0  0  0  0
  1  2  1  0  0  0  0 
  1  3  1  0  0  0  0 
  2  4  1  0  0  0  0 
  3  5  1  0  0  0  0 
  5  6  1  0  0  0  0 
  6  7  1  0  0  0  0 
M  END
> <Name>
Ether, butyl ethyl

> <Source>
DougDB3DMolFile

> <Tox>
1.738

> <CAS>
628-81-9

$$$$

  CDK

  7  6  0  0  0  0  0  0  0  0999 V2000
   -0.0003    0.0530   -0.0061 N   0  0  0  0  0  0  0  0  0  0  0  0
   -1.2329   -0.7779    0.0060 C   0  0  0  0  0  0  0  0  0  0  0  0
    1.2326   -0.7773    0.0028 C   0  0  0  0  0  0  0  0  0  0  0  0
   -2.4038    0.0790   -0.0071 C   0  0  0  0  0  0  0  0  0  0  0  0
    2.4036    0.0796   -0.0076 C   0  0  0  0  0  0  0  0  0  0  0  0
   -3.3448    0.7543   -0.0206 N   0  0  0  0  0  0  0  0  0  0  0  0
    3.3456    0.7535   -0.0189 N   0  0  0  0  0  0  0  0  0  0  0  0
  1  2  1  0  0  0  0 
  1  3  1  0  0  0  0 
  4  2  1  0  0  0  0 
  5  3  1  0  0  0  0 
  4  6  3  0  0  0  0 
  5  7  3  0  0  0  0 
M  END
> <Name>
Acetonitrile, 2,2'-iminobis-

> <Source>
DougDB3DMolFile

> <Tox>
2.127

> <CAS>
628-87-5

$$$$

  CDK

 10  9  0  0  0  0  0  0  0  0999 V2000
    3.4302   -2.0003    0.0000 C   0  0  0  0  0  0  0  0  0  0  0  0
    4.5870   -1.3255    0.0000 C   0  0  0  0  0  0  0  0  0  0  0  0
    2.2975   -1.3255    0.0000 O   0  0  0  0  0  0  0  0  0  0  0  0
    5.7357   -2.0003    0.0000 O   0  0  0  0  0  0  0  0  0  0  0  0
    1.1487   -2.0003    0.0000 N   0  0  0  0  0  0  0  0  0  0  0  0
    6.8845   -1.3255    0.0000 N   0  0  0  0  0  0  0  0  0  0  0  0
    0.0000   -1.3255    0.0000 O   0  0  0  0  0  0  0  0  0  0  0  0
    1.1487   -3.3257    0.0000 O   0  0  0  0  0  0  0  0  0  0  0  0
    8.0332   -2.0003    0.0000 O   0  0  0  0  0  0  0  0  0  0  0  0
    6.8845   -0.0000    0.0000 O   0  0  0  0  0  0  0  0  0  0  0  0
  1  2  1  0  0  0  0 
  1  3  1  0  0  0  0 
  2  4  1  0  0  0  0 
  3  5  1  0  0  0  0 
  4  6  1  0  0  0  0 
  5  7  1  0  0  0  0 
  5  8  2  0  0  0  0 
  6  9  1  0  0  0  0 
  6 10  2  0  0  0  0 
M  CHG  1   5   1
M  CHG  1   6   1
M  CHG  1   7  -1
M  CHG  1   9  -1
M  END
> <Name>
Ethylene glycol, dinitrate

> <Source>
DSSTox2DMolFile

> <Tox>
2.519

> <CAS>
628-96-6

$$$$

  CDK

  8  7  0  0  0  0  0  0  0  0999 V2000
    3.4705    0.4958    0.0000 C   0  0  0  0  0  0  0  0  0  0  0  0
    2.5781    0.0000    0.0000 C   0  0  0  0  0  0  0  0  0  0  0  0
    4.3133    0.0000    0.0000 O   0  0  0  0  0  0  0  0  0  0  0  0
    1.7352    0.4958    0.0000 O   0  0  0  0  0  0  0  0  0  0  0  0
    5.1561    0.5454    0.0000 C   0  0  0  0  0  0  0  0  0  0  0  0
    0.8924    0.0000    0.0000 C   0  0  0  0  0  0  0  0  0  0  0  0
    6.0485    0.0496    0.0000 O   0  0  0  0  0  0  0  0  0  0  0  0
    0.0000    0.4958    0.0000 O   0  0  0  0  0  0  0  0  0  0  0  0
  1  2  1  0  0  0  0 
  1  3  1  0  0  0  0 
  2  4  1  0  0  0  0 
  3  5  1  0  0  0  0 
  4  6  1  0  0  0  0 
  5  7  2  0  0  0  0 
  6  8  2  0  0  0  0 
M  END
> <Name>
Ethylene glycol, diformate

> <Source>
NIST2DMolFile

> <Tox>
1.893

> <CAS>
629-15-2

$$$$

  CDK

  8  7  0  0  0  0  0  0  0  0999 V2000
    0.0000    0.0000    0.0000 C   0  0  0  0  0  0  0  0  0  0  0  0
    0.2800   -1.4200    0.5200 C   0  0  0  0  0  0  0  0  0  0  0  0
   -0.6400    1.0200    1.2800 S   0  0  0  0  0  0  0  0  0  0  0  0
    1.2800   -1.3800    1.9400 S   0  0  0  0  0  0  0  0  0  0  0  0
   -1.4800   -0.0800    2.2200 C   0  0  0  0  0  0  0  0  0  0  0  0
    1.4200   -3.0200    2.3200 C   0  0  0  0  0  0  0  0  0  0  0  0
   -2.0800   -0.8400    2.8800 N   0  0  0  0  0  0  0  0  0  0  0  0
    1.5400   -4.1600    2.5800 N   0  0  0  0  0  0  0  0  0  0  0  0
  1  2  1  0  0  0  0 
  1  3  1  0  0  0  0 
  2  4  1  0  0  0  0 
  3  5  1  0  0  0  0 
  4  6  1  0  0  0  0 
  5  7  3  0  0  0  0 
  6  8  3  0  0  0  0 
M  END
> <Name>
Thiocyanic acid, ethylene ester (6CI,7CI,8CI)

> <Source>
NIH3DMolFile

> <Tox>
3.460

> <CAS>
629-17-4

$$$$

  CDK

  9  8  0  0  0  0  0  0  0  0999 V2000
    6.9283    0.0000    0.0000 O   0  0  0  0  0  0  0  0  0  0  0  0
    6.0623    0.5000    0.0000 N   0  0  0  0  0  0  0  0  0  0  0  0
    5.1962    0.0000    0.0000 C   0  0  0  0  0  0  0  0  0  0  0  0
    4.3302    0.5000    0.0000 C   0  0  0  0  0  0  0  0  0  0  0  0
    3.4641    0.0000    0.0000 C   0  0  0  0  0  0  0  0  0  0  0  0
    2.5981    0.5000    0.0000 C   0  0  0  0  0  0  0  0  0  0  0  0
    1.7321    0.0000    0.0000 C   0  0  0  0  0  0  0  0  0  0  0  0
    0.8660    0.5000    0.0000 C   0  0  0  0  0  0  0  0  0  0  0  0
    0.0000    0.0000    0.0000 C   0  0  0  0  0  0  0  0  0  0  0  0
  2  1  1  0  0  0  0 
  3  2  2  0  0  0  0 
  4  3  1  0  0  0  0 
  5  4  1  0  0  0  0 
  6  5  1  0  0  0  0 
  7  6  1  0  0  0  0 
  8  7  1  0  0  0  0 
  9  8  1  0  0  0  0 
M  END
> <Name>
Heptanal, oxime

> <Source>
NIST2DMolFile

> <Tox>
2.092

> <CAS>
629-31-2

$$$$

  CDK

  8  7  0  0  0  0  0  0  0  0999 V2000
    2.5884    0.9955    0.0000 N   0  0  0  0  0  0  0  0  0  0  0  0
    1.7422    1.4933    0.0000 C   0  0  0  0  0  0  0  0  0  0  0  0
    2.5884    0.0000    0.0000 C   0  0  0  0  0  0  0  0  0  0  0  0
    3.4844    1.4933    0.0000 C   0  0  0  0  0  0  0  0  0  0  0  0
    0.8960    0.9955    0.0000 N   0  0  0  0  0  0  0  0  0  0  0  0
    1.7422    2.4888    0.0000 O   0  0  0  0  0  0  0  0  0  0  0  0
    0.8960    0.0000    0.0000 C   0  0  0  0  0  0  0  0  0  0  0  0
    0.0000    1.4933    0.0000 C   0  0  0  0  0  0  0  0  0  0  0  0
  1  2  1  0  0  0  0 
  1  3  1  0  0  0  0 
  1  4  1  0  0  0  0 
  2  5  1  0  0  0  0 
  2  6  2  0  0  0  0 
  5  7  1  0  0  0  0 
  5  8  1  0  0  0  0 
M  END
> <Name>
Urea, 1,1,3,3-tetramethyl-

> <Source>
NIST2DMolFile

> <Tox>
2.165

> <CAS>
632-22-4

$$$$

  CDK

 11 11  0  0  0  0  0  0  0  0999 V2000
    3.6133   -0.6905    0.1757 N   0  0  0  0  0  0  0  0  0  0  0  0
    2.3022   -0.1496    0.0273 C   0  0  0  0  0  0  0  0  0  0  0  0
    1.1895   -0.9992    0.0378 C   0  0  0  0  0  0  0  0  0  0  0  0
    2.1173    1.2424   -0.0197 C   0  0  0  0  0  0  0  0  0  0  0  0
   -0.1011   -0.4633    0.0093 C   0  0  0  0  0  0  0  0  0  0  0  0
    0.8364    1.7662   -0.0535 C   0  0  0  0  0  0  0  0  0  0  0  0
   -0.2775    0.9237   -0.0392 C   0  0  0  0  0  0  0  0  0  0  0  0
   -1.2669   -1.4096    0.0345 N   0  0  0  0  0  0  0  0  0  0  0  0
   -1.7985    1.6307   -0.0990 Cl  0  0  0  0  0  0  0  0  0  0  0  0
   -1.1828   -2.4559   -0.5775 O   0  0  0  0  0  0  0  0  0  0  0  0
   -2.2583   -1.1216    0.6703 O   0  0  0  0  0  0  0  0  0  0  0  0
  1  2  1  0  0  0  0 
  2  3  1  0  0  0  0 
  2  4  2  0  0  0  0 
  3  5  2  0  0  0  0 
  6  4  1  0  0  0  0 
  5  7  1  0  0  0  0 
  5  8  1  0  0  0  0 
  7  6  2  0  0  0  0 
  7  9  1  0  0  0  0 
  8 10  2  0  0  0  0 
  8 11  1  0  0  0  0 
M  CHG  1   8   1
M  CHG  1  11  -1
M  END
> <Name>
Benzenamine, 4-chloro-3-nitro-

> <Source>
DougDB3DMolFile

> <Tox>
2.635

> <CAS>
635-22-3

$$$$

  CDK

 13 14  0  0  0  0  0  0  0  0999 V2000
   -3.1038    0.0023    0.0032 C   0  0  0  0  0  0  0  0  0  0  0  0
   -4.5889   -0.0046   -0.0122 C   0  0  0  0  0  0  0  0  0  0  0  0
   -2.3997   -1.1002    0.4903 C   0  0  0  0  0  0  0  0  0  0  0  0
   -2.3989    1.1054   -0.4808 C   0  0  0  0  0  0  0  0  0  0  0  0
   -1.0109   -1.1033    0.4882 C   0  0  0  0  0  0  0  0  0  0  0  0
   -1.0099    1.1069   -0.4794 C   0  0  0  0  0  0  0  0  0  0  0  0
   -0.3057    0.0011    0.0034 C   0  0  0  0  0  0  0  0  0  0  0  0
    1.1630   -0.0001    0.0017 C   0  0  0  0  0  0  0  0  0  0  0  0
    1.8683    1.1053    0.4846 C   0  0  0  0  0  0  0  0  0  0  0  0
    1.8649   -1.1063   -0.4842 C   0  0  0  0  0  0  0  0  0  0  0  0
    3.2582    1.1005    0.4824 C   0  0  0  0  0  0  0  0  0  0  0  0
    3.2548   -1.1032   -0.4879 C   0  0  0  0  0  0  0  0  0  0  0  0
    3.9531   -0.0017   -0.0044 C   0  0  0  0  0  0  0  0  0  0  0  0
  1  2  1  0  0  0  0 
  3  1  1  0  0  0  0 
  4  1  2  0  0  0  0 
  5  3  2  0  0  0  0 
  6  4  1  0  0  0  0 
  7  5  1  0  0  0  0 
  6  7  2  0  0  0  0 
  8  7  1  0  0  0  0 
  9  8  1  0  0  0  0 
 10  8  2  0  0  0  0 
 11  9  2  0  0  0  0 
 12 10  1  0  0  0  0 
 13 11  1  0  0  0  0 
 12 13  2  0  0  0  0 
M  END
> <Name>
1,1'-Biphenyl, 4-methyl-

> <Source>
DougDB3DMolFile

> <Tox>
1.816

> <CAS>
644-08-6

$$$$

  CDK

 19 20  0  0  0  0  0  0  0  0999 V2000
    0.0000    0.0000    0.0000 N   0  0  0  0  0  0  0  0  0  0  0  0
    1.1600    0.1400   -0.7400 C   0  0  0  0  0  0  0  0  0  0  0  0
   -0.6600   -1.2000    0.0000 C   0  0  0  0  0  0  0  0  0  0  0  0
    2.3000    0.7800   -0.1800 C   0  0  0  0  0  0  0  0  0  0  0  0
    1.2200   -0.3400   -2.0800 C   0  0  0  0  0  0  0  0  0  0  0  0
   -2.0800   -1.2400    0.0000 C   0  0  0  0  0  0  0  0  0  0  0  0
    0.0800   -2.3800    0.0000 C   0  0  0  0  0  0  0  0  0  0  0  0
    2.3000    1.4000    1.4400 Cl  0  0  0  0  0  0  0  0  0  0  0  0
    3.4800    0.9000   -0.9600 C   0  0  0  0  0  0  0  0  0  0  0  0
   -0.1200   -1.1200   -2.8400 Cl  0  0  0  0  0  0  0  0  0  0  0  0
    2.4000   -0.2000   -2.8200 C   0  0  0  0  0  0  0  0  0  0  0  0
   -2.9000    0.0000    0.0000 C   0  0  0  0  0  0  0  0  0  0  0  0
   -2.7400   -2.4800    0.0000 C   0  0  0  0  0  0  0  0  0  0  0  0
   -0.5800   -3.6200    0.0000 C   0  0  0  0  0  0  0  0  0  0  0  0
    3.5200    0.4200   -2.2800 C   0  0  0  0  0  0  0  0  0  0  0  0
    4.7000    1.5600   -0.4200 C   0  0  0  0  0  0  0  0  0  0  0  0
   -4.1200   -0.0400    0.0400 O   0  0  0  0  0  0  0  0  0  0  0  0
   -2.2200    1.1400   -0.0600 O   0  0  0  0  0  0  0  0  0  0  0  0
   -2.0000   -3.6800    0.0000 C   0  0  0  0  0  0  0  0  0  0  0  0
  1  2  1  0  0  0  0 
  1  3  1  0  0  0  0 
  2  4  2  0  0  0  0 
  2  5  1  0  0  0  0 
  3  6  2  0  0  0  0 
  3  7  1  0  0  0  0 
  4  8  1  0  0  0  0 
  4  9  1  0  0  0  0 
  5 10  1  0  0  0  0 
  5 11  2  0  0  0  0 
  6 12  1  0  0  0  0 
  6 13  1  0  0  0  0 
 14  7  2  0  0  0  0 
 15  9  2  0  0  0  0 
  9 16  1  0  0  0  0 
 11 15  1  0  0  0  0 
 12 17  2  0  0  0  0 
 12 18  1  0  0  0  0 
 13 19  2  0  0  0  0 
 19 14  1  0  0  0  0 
M  END
> <Name>
Benzoic acid, 2-((2,6-dichloro-3-methylphenyl)amino)-

> <Source>
NIH3DMolFile

> <Tox>
3.472

> <CAS>
644-62-2

$$$$

  CDK

  9  9  0  0  0  0  0  0  0  0999 V2000
    3.9880   -1.1560    0.0000 P   0  0  0  0  0  0  0  0  0  0  0  0
    4.6426   -2.3074    0.0000 Cl  0  0  0  0  0  0  0  0  0  0  0  0
    4.6426   -0.0000    0.0000 Cl  0  0  0  0  0  0  0  0  0  0  0  0
    2.6556   -1.1560    0.0000 C   0  0  0  0  0  0  0  0  0  0  0  0
    1.9870   -2.3074    0.0000 C   0  0  0  0  0  0  0  0  0  0  0  0
    1.9870   -0.0000    0.0000 C   0  0  0  0  0  0  0  0  0  0  0  0
    0.6546   -2.3074    0.0000 C   0  0  0  0  0  0  0  0  0  0  0  0
    0.6546   -0.0000    0.0000 C   0  0  0  0  0  0  0  0  0  0  0  0
    0.0000   -1.1560    0.0000 C   0  0  0  0  0  0  0  0  0  0  0  0
  1  2  1  0  0  0  0 
  1  3  1  0  0  0  0 
  1  4  1  0  0  0  0 
  4  5  2  0  0  0  0 
  4  6  1  0  0  0  0 
  5  7  1  0  0  0  0 
  6  8  2  0  0  0  0 
  7  9  2  0  0  0  0 
  8  9  1  0  0  0  0 
M  END
> <Name>
Phosphonous dichloride, phenyl-

> <Source>
DSSTox2DMolFile

> <Tox>
2.952

> <CAS>
644-97-3

$$$$

  CDK

 10 11  0  0  0  0  0  0  0  0999 V2000
    2.4968    0.8153    0.0000 C   0  0  0  0  0  0  0  0  0  0  0  0
    1.6815    0.4076    0.0000 O   0  0  0  0  0  0  0  0  0  0  0  0
    2.4968    1.6305    0.0000 C   0  0  0  0  0  0  0  0  0  0  0  0
    4.1782    0.8153    0.0000 C   0  0  0  0  0  0  0  0  0  0  0  0
    0.8153    0.8153    0.0000 C   0  0  0  0  0  0  0  0  0  0  0  0
    0.8153    1.6305    0.0000 C   0  0  0  0  0  0  0  0  0  0  0  0
    3.3120    2.0382    0.0000 O   0  0  0  0  0  0  0  0  0  0  0  0
    4.9935    0.4076    0.0000 O   0  0  0  0  0  0  0  0  0  0  0  0
    4.1782    1.6305    0.0000 C   0  0  0  0  0  0  0  0  0  0  0  0
    0.0000    2.0382    0.0000 O   0  0  0  0  0  0  0  0  0  0  0  0
  1  2  1  0  0  0  0 
  1  3  1  0  0  0  0 
  4  1  1  0  0  0  0 
  2  5  1  0  0  0  0 
  6  3  1  0  0  0  0 
  3  7  1  0  0  0  0 
  8  4  1  0  0  0  0 
  9  4  1  0  0  0  0 
  5  6  1  0  0  0  0 
  6 10  1  0  0  0  0 
  7  9  1  0  0  0  0 
M  END
> <Name>
Glucitol, 1,4:3,6-dianhydro-, D-

> <Source>
NIST2DMolFile

> <Tox>
0.782

> <CAS>
652-67-5

$$$$

  CDK

 14 15  0  0  0  0  0  0  0  0999 V2000
    1.2127    2.0988    0.0000 C   0  0  0  0  0  0  0  0  0  0  0  0
    1.2127    0.6996    0.0000 C   0  0  0  0  0  0  0  0  0  0  0  0
    2.4253    2.7984    0.0000 C   0  0  0  0  0  0  0  0  0  0  0  0
    2.4253    0.0000    0.0000 C   0  0  0  0  0  0  0  0  0  0  0  0
    0.0000    0.0000    0.0000 Cl  0  0  0  0  0  0  0  0  0  0  0  0
    3.6380    2.0988    0.0000 C   0  0  0  0  0  0  0  0  0  0  0  0
    3.6380    0.6996    0.0000 C   0  0  0  0  0  0  0  0  0  0  0  0
    4.9439    2.5652    0.0000 N   0  0  0  0  0  0  0  0  0  0  0  0
    4.9439    0.2798    0.0000 N   0  0  0  0  0  0  0  0  0  0  0  0
    5.7835    1.3992    0.0000 C   0  0  0  0  0  0  0  0  0  0  0  0
    7.1827    1.3992    0.0000 C   0  0  0  0  0  0  0  0  0  0  0  0
    7.8823    0.1866    0.0000 F   0  0  0  0  0  0  0  0  0  0  0  0
    7.8823    2.6119    0.0000 F   0  0  0  0  0  0  0  0  0  0  0  0
    8.5819    1.3992    0.0000 F   0  0  0  0  0  0  0  0  0  0  0  0
  1  2  2  0  0  0  0 
  1  3  1  0  0  0  0 
  2  4  1  0  0  0  0 
  2  5  1  0  0  0  0 
  6  3  2  0  0  0  0 
  4  7  2  0  0  0  0 
  7  6  1  0  0  0  0 
  6  8  1  0  0  0  0 
  7  9  1  0  0  0  0 
 10  8  1  0  0  0  0 
  9 10  2  0  0  0  0 
 10 11  1  0  0  0  0 
 11 12  1  0  0  0  0 
 11 13  1  0  0  0  0 
 11 14  1  0  0  0  0 
M  END
> <Name>
Benzimidazole, 5-chloro-2-(trifluoromethyl)-

> <Source>
IndexNet2DMolFile

> <Tox>
4.510

> <CAS>
656-49-5

$$$$

  CDK

 10  9  0  0  0  0  0  0  0  0999 V2000
    0.0000    2.0210    0.0000 N   0  0  0  0  0  0  0  0  0  0  0  0
    0.8589    2.4757    0.0000 C   0  0  0  0  0  0  0  0  0  0  0  0
    1.7178    2.0210    0.0000 C   0  0  0  0  0  0  0  0  0  0  0  0
    2.6273    2.4757    0.0000 C   0  0  0  0  0  0  0  0  0  0  0  0
    1.7178    1.0610    0.0000 C   0  0  0  0  0  0  0  0  0  0  0  0
    3.4862    2.9810    0.0000 N   0  0  0  0  0  0  0  0  0  0  0  0
    0.8589    0.5558    0.0000 C   0  0  0  0  0  0  0  0  0  0  0  0
    2.6273    0.5558    0.0000 C   0  0  0  0  0  0  0  0  0  0  0  0
    0.0000    0.0000    0.0000 N   0  0  0  0  0  0  0  0  0  0  0  0
    3.4862    0.0000    0.0000 N   0  0  0  0  0  0  0  0  0  0  0  0
  1  2  3  0  0  0  0 
  2  3  1  0  0  0  0 
  3  4  1  0  0  0  0 
  3  5  2  0  0  0  0 
  4  6  3  0  0  0  0 
  5  7  1  0  0  0  0 
  5  8  1  0  0  0  0 
  7  9  3  0  0  0  0 
  8 10  3  0  0  0  0 
M  END
> <Name>
Ethylenetetracarbonitrile

> <Source>
NIST2DMolFile

> <Tox>
4.409

> <CAS>
670-54-2

$$$$

  CDK

 15 14  0  0  0  0  0  0  0  0999 V2000
    1.3992    7.1827    0.0000 C   0  0  0  0  0  0  0  0  0  0  0  0
    0.0000    7.1827    0.0000 O   0  0  0  0  0  0  0  0  0  0  0  0
    2.0988    5.9700    0.0000 C   0  0  0  0  0  0  0  0  0  0  0  0
    3.4981    5.9700    0.0000 C   0  0  0  0  0  0  0  0  0  0  0  0
    2.3320    4.5708    0.0000 C   0  0  0  0  0  0  0  0  0  0  0  0
    0.7463    5.4570    0.0000 C   0  0  0  0  0  0  0  0  0  0  0  0
    4.1977    4.7574    0.0000 O   0  0  0  0  0  0  0  0  0  0  0  0
    1.2593    3.6846    0.0000 O   0  0  0  0  0  0  0  0  0  0  0  0
    0.5130    4.1044    0.0000 C   0  0  0  0  0  0  0  0  0  0  0  0
    5.5969    4.7574    0.0000 C   0  0  0  0  0  0  0  0  0  0  0  0
    1.4925    2.2854    0.0000 C   0  0  0  0  0  0  0  0  0  0  0  0
    6.2965    3.5447    0.0000 C   0  0  0  0  0  0  0  0  0  0  0  0
    0.4198    1.3992    0.0000 C   0  0  0  0  0  0  0  0  0  0  0  0
    7.6957    3.5447    0.0000 C   0  0  0  0  0  0  0  0  0  0  0  0
    0.6530    0.0000    0.0000 C   0  0  0  0  0  0  0  0  0  0  0  0
  1  2  1  0  0  0  0 
  1  3  1  0  0  0  0 
  3  4  1  0  0  0  0 
  3  5  1  0  0  0  0 
  3  6  1  0  0  0  0 
  4  7  1  0  0  0  0 
  5  8  1  0  0  0  0 
  6  9  1  0  0  0  0 
  7 10  1  0  0  0  0 
  8 11  1  0  0  0  0 
 10 12  1  0  0  0  0 
 11 13  1  0  0  0  0 
 12 14  2  0  0  0  0 
 13 15  2  0  0  0  0 
M  END
> <Name>
1,3-Propanediol, 2-ethyl-2-(hydroxymethyl)-, diallyl ether

> <Source>
IndexNet2DMolFile

> <Tox>
1.518

> <CAS>
682-09-7

$$$$

  CDK

  7  6  0  0  0  0  0  0  0  0999 V2000
    1.3291   -0.0000    0.0000 C   0  0  0  0  0  0  0  0  0  0  0  0
    1.9956   -1.1495    0.0000 N   0  0  0  0  0  0  0  0  0  0  0  0
    3.3247   -1.1495    0.0000 C   0  0  0  0  0  0  0  0  0  0  0  0
    1.3291   -2.3029    0.0000 N   0  0  0  0  0  0  0  0  0  0  0  0
    3.9912   -2.3029    0.0000 O   0  0  0  0  0  0  0  0  0  0  0  0
    3.9912   -0.0000    0.0000 N   0  0  0  0  0  0  0  0  0  0  0  0
    0.0000   -2.3029    0.0000 O   0  0  0  0  0  0  0  0  0  0  0  0
  1  2  1  0  0  0  0 
  2  3  1  0  0  0  0 
  2  4  1  0  0  0  0 
  3  5  2  0  0  0  0 
  3  6  1  0  0  0  0 
  4  7  2  0  0  0  0 
M  END
> <Name>
Urea, 1-methyl-1-nitroso- (8CI)

> <Source>
DSSTox2DMolFile

> <Tox>
2.972

> <CAS>
684-93-5

$$$$

  CDK

 13 12  0  0  0  0  0  0  0  0999 V2000
   -2.7560   -0.6671    0.5840 P   0  0  0  0  0  0  0  0  0  0  0  0
   -1.8232   -0.4316    1.8839 O   0  0  0  0  0  0  0  0  0  0  0  0
   -2.0531    0.2231   -0.5725 O   0  0  0  0  0  0  0  0  0  0  0  0
   -2.4346   -2.2002    0.1736 O   0  0  0  0  0  0  0  0  0  0  0  0
   -4.2104   -0.3636    0.8037 O   0  0  0  0  0  0  0  0  0  0  0  0
   -1.5383    0.9001    2.7562 P   0  0  0  0  0  0  0  0  0  0  0  0
   -0.6821    0.0352   -0.8791 C   0  0  0  0  0  0  0  0  0  0  0  0
   -2.8046   -3.2309    1.0731 C   0  0  0  0  0  0  0  0  0  0  0  0
   -2.9703    1.2431    3.4311 O   0  0  0  0  0  0  0  0  0  0  0  0
   -0.6293    0.3511    3.9787 O   0  0  0  0  0  0  0  0  0  0  0  0
   -0.9322    2.0314    1.9763 O   0  0  0  0  0  0  0  0  0  0  0  0
   -3.6498    0.2611    4.1946 C   0  0  0  0  0  0  0  0  0  0  0  0
    0.6561   -0.1676    3.6836 C   0  0  0  0  0  0  0  0  0  0  0  0
  1  2  1  0  0  0  0 
  1  3  1  0  0  0  0 
  1  4  1  0  0  0  0 
  1  5  2  0  0  0  0 
  6  2  1  0  0  0  0 
  3  7  1  0  0  0  0 
  4  8  1  0  0  0  0 
  6  9  1  0  0  0  0 
  6 10  1  0  0  0  0 
  6 11  2  0  0  0  0 
  9 12  1  0  0  0  0 
 10 13  1  0  0  0  0 
M  END
> <Name>
Pyrophosphoric acid, tetramethyl ester

> <Source>
Chemidplus3DMolFile

> <Tox>
5.139

> <CAS>
690-49-3

$$$$

  CDK

  6  5  0  0  0  0  0  0  0  0999 V2000
    2.6407    0.4982    0.0000 C   0  0  0  0  0  0  0  0  0  0  0  0
    1.7439    0.0000    0.0000 C   0  0  0  0  0  0  0  0  0  0  0  0
    3.4877    0.0000    0.0000 N   0  0  0  0  0  0  0  0  0  0  0  0
    0.8470    0.4982    0.0000 C   0  0  0  0  0  0  0  0  0  0  0  0
    4.3348    0.4982    0.0000 C   0  0  0  0  0  0  0  0  0  0  0  0
    0.0000    0.9965    0.0000 N   0  0  0  0  0  0  0  0  0  0  0  0
  1  2  1  0  0  0  0 
  1  3  1  0  0  0  0 
  2  4  1  0  0  0  0 
  3  5  1  0  0  0  0 
  4  6  3  0  0  0  0 
M  END
> <Name>
Propionitrile, 3-(methylamino)- (6CI,7CI,8CI)

> <Source>
NIST2DMolFile

> <Tox>
1.571

> <CAS>
693-05-0

$$$$

  CDK

 12 12  0  0  0  0  0  0  0  0999 V2000
    0.0000    0.0000    0.0000 C   0  0  0  0  0  0  0  0  0  0  0  0
   -0.0400    1.5200    0.1200 C   0  0  0  0  0  0  0  0  0  0  0  0
    1.1400    2.0800    0.9400 C   0  0  0  0  0  0  0  0  0  0  0  0
    1.2600    1.3000    2.2400 C   0  0  0  0  0  0  0  0  0  0  0  0
    2.4200    1.9400    0.1800 C   0  0  0  0  0  0  0  0  0  0  0  0
    0.8800    3.5600    1.2600 C   0  0  0  0  0  0  0  0  0  0  0  0
   -0.0600    1.2200    3.0200 C   0  0  0  0  0  0  0  0  0  0  0  0
    2.6000    1.0200   -0.6000 O   0  0  0  0  0  0  0  0  0  0  0  0
    3.4200    2.8600    0.3600 N   0  0  0  0  0  0  0  0  0  0  0  0
    2.0600    4.2000    1.7800 O   0  0  0  0  0  0  0  0  0  0  0  0
    3.2400    3.9400    1.2000 C   0  0  0  0  0  0  0  0  0  0  0  0
    4.2000    4.6600    1.4200 O   0  0  0  0  0  0  0  0  0  0  0  0
  1  2  1  0  0  0  0 
  2  3  1  0  0  0  0 
  3  4  1  0  0  0  0 
  3  5  1  0  0  0  0 
  3  6  1  0  0  0  0 
  4  7  1  0  0  0  0 
  8  5  2  0  0  0  0 
  5  9  1  0  0  0  0 
 10  6  1  0  0  0  0 
  9 11  1  0  0  0  0 
 11 10  1  0  0  0  0 
 11 12  2  0  0  0  0 
M  END
> <Name>
2H-1,3-Oxazine-2,4(3H)-dione, 5,5-diethyldihydro-

> <Source>
NIH3DMolFile

> <Tox>
3.382

> <CAS>
702-54-5

$$$$

  CDK

 13 13  0  0  0  0  0  0  0  0999 V2000
    7.3156   -0.0000    0.0000 C   0  0  0  0  0  0  0  0  0  0  0  0
    7.9778   -1.1488    0.0000 C   0  0  0  0  0  0  0  0  0  0  0  0
    5.9834   -0.0000    0.0000 C   0  0  0  0  0  0  0  0  0  0  0  0
    7.3156   -2.3056    0.0000 C   0  0  0  0  0  0  0  0  0  0  0  0
    5.3212   -1.1488    0.0000 C   0  0  0  0  0  0  0  0  0  0  0  0
    7.9778   -3.4544    0.0000 O   0  0  0  0  0  0  0  0  0  0  0  0
    5.9834   -2.3056    0.0000 C   0  0  0  0  0  0  0  0  0  0  0  0
    3.9889   -1.1488    0.0000 C   0  0  0  0  0  0  0  0  0  0  0  0
    3.3267   -0.0000    0.0000 O   0  0  0  0  0  0  0  0  0  0  0  0
    3.3267   -2.3056    0.0000 C   0  0  0  0  0  0  0  0  0  0  0  0
    1.9945   -2.3056    0.0000 N   0  0  0  0  0  0  0  0  0  0  0  0
    1.3323   -3.4544    0.0000 C   0  0  0  0  0  0  0  0  0  0  0  0
    0.0000   -3.4544    0.0000 C   0  0  0  0  0  0  0  0  0  0  0  0
  1  2  2  0  0  0  0 
  1  3  1  0  0  0  0 
  2  4  1  0  0  0  0 
  5  3  2  0  0  0  0 
  4  6  1  0  0  0  0 
  4  7  2  0  0  0  0 
  7  5  1  0  0  0  0 
  5  8  1  0  0  0  0 
  8  9  1  0  0  0  0 
  8 10  1  0  0  0  0 
 10 11  1  0  0  0  0 
 11 12  1  0  0  0  0 
 12 13  1  0  0  0  0 
M  END
> <Name>
Benzenemethanol, alpha-((ethylamino)methyl)-3-hydroxy-

> <Source>
DSSTox2DMolFile

> <Tox>
3.201

> <CAS>
709-55-7

$$$$

  CDK

 18 18  0  0  0  0  0  0  0  0999 V2000
    2.6616   -5.7587    0.0000 O   0  0  0  0  0  0  0  0  0  0  0  0
    3.3253   -4.6111    0.0000 C   0  0  0  0  0  0  0  0  0  0  0  0
    2.6616   -3.4566    0.0000 C   0  0  0  0  0  0  0  0  0  0  0  0
    4.6595   -4.6111    0.0000 C   0  0  0  0  0  0  0  0  0  0  0  0
    1.3273   -3.4566    0.0000 C   0  0  0  0  0  0  0  0  0  0  0  0
    3.3253   -2.3021    0.0000 C   0  0  0  0  0  0  0  0  0  0  0  0
    5.3232   -3.4566    0.0000 C   0  0  0  0  0  0  0  0  0  0  0  0
    5.3232   -5.7587    0.0000 C   0  0  0  0  0  0  0  0  0  0  0  0
    1.3273   -4.7840    0.0000 C   0  0  0  0  0  0  0  0  0  0  0  0
    0.0000   -3.4566    0.0000 C   0  0  0  0  0  0  0  0  0  0  0  0
    1.3273   -2.1293    0.0000 C   0  0  0  0  0  0  0  0  0  0  0  0
    4.6595   -2.3021    0.0000 C   0  0  0  0  0  0  0  0  0  0  0  0
    6.4708   -5.0950    0.0000 C   0  0  0  0  0  0  0  0  0  0  0  0
    5.9869   -6.9132    0.0000 C   0  0  0  0  0  0  0  0  0  0  0  0
    4.1687   -6.4293    0.0000 C   0  0  0  0  0  0  0  0  0  0  0  0
    5.3232   -1.1545    0.0000 N   0  0  0  0  0  0  0  0  0  0  0  0
    4.6595   -0.0000    0.0000 O   0  0  0  0  0  0  0  0  0  0  0  0
    6.6505   -1.1545    0.0000 O   0  0  0  0  0  0  0  0  0  0  0  0
  1  2  1  0  0  0  0 
  2  3  2  0  0  0  0 
  2  4  1  0  0  0  0 
  3  5  1  0  0  0  0 
  3  6  1  0  0  0  0 
  7  4  2  0  0  0  0 
  4  8  1  0  0  0  0 
  5  9  1  0  0  0  0 
  5 10  1  0  0  0  0 
  5 11  1  0  0  0  0 
  6 12  2  0  0  0  0 
 12  7  1  0  0  0  0 
  8 13  1  0  0  0  0 
  8 14  1  0  0  0  0 
  8 15  1  0  0  0  0 
 12 16  1  0  0  0  0 
 16 17  1  0  0  0  0 
 16 18  2  0  0  0  0 
M  CHG  1  16   1
M  CHG  1  17  -1
M  END
> <Name>
Phenol, 2,6-bis(1,1-dimethylethyl)-4-nitro- (9CI)

> <Source>
DSSTox2DMolFile

> <Tox>
3.002

> <CAS>
728-40-5

$$$$

  CDK

 19 19  0  0  0  0  0  0  0  0999 V2000
    2.5066    0.0000    0.0000 F   0  0  0  0  0  0  0  0  0  0  0  0
    2.0053    0.8522    0.0000 C   0  0  0  0  0  0  0  0  0  0  0  0
    3.0079    0.8522    0.0000 Cl  0  0  0  0  0  0  0  0  0  0  0  0
    1.5039    0.0000    0.0000 Cl  0  0  0  0  0  0  0  0  0  0  0  0
    1.5039    1.7546    0.0000 S   0  0  0  0  0  0  0  0  0  0  0  0
    2.0053    2.6068    0.0000 N   0  0  0  0  0  0  0  0  0  0  0  0
    1.5039    3.4591    0.0000 S   0  0  0  0  0  0  0  0  0  0  0  0
    3.0079    2.6068    0.0000 C   0  0  0  0  0  0  0  0  0  0  0  0
    1.0026    4.3614    0.0000 N   0  0  0  0  0  0  0  0  0  0  0  0
    2.4063    3.9604    0.0000 O   0  0  0  0  0  0  0  0  0  0  0  0
    0.6517    2.9577    0.0000 O   0  0  0  0  0  0  0  0  0  0  0  0
    3.5092    1.7546    0.0000 C   0  0  0  0  0  0  0  0  0  0  0  0
    3.5092    3.4591    0.0000 C   0  0  0  0  0  0  0  0  0  0  0  0
    1.5039    5.2137    0.0000 C   0  0  0  0  0  0  0  0  0  0  0  0
    0.0000    4.3614    0.0000 C   0  0  0  0  0  0  0  0  0  0  0  0
    4.5118    1.7546    0.0000 C   0  0  0  0  0  0  0  0  0  0  0  0
    4.5118    3.4591    0.0000 C   0  0  0  0  0  0  0  0  0  0  0  0
    5.0131    2.6068    0.0000 C   0  0  0  0  0  0  0  0  0  0  0  0
    6.0158    2.6068    0.0000 C   0  0  0  0  0  0  0  0  0  0  0  0
  1  2  1  0  0  0  0 
  2  3  1  0  0  0  0 
  2  4  1  0  0  0  0 
  2  5  1  0  0  0  0 
  5  6  1  0  0  0  0 
  7  6  1  0  0  0  0 
  6  8  1  0  0  0  0 
  9  7  1  0  0  0  0 
 10  7  2  0  0  0  0 
  7 11  2  0  0  0  0 
  8 12  2  0  0  0  0 
 13  8  1  0  0  0  0 
 14  9  1  0  0  0  0 
  9 15  1  0  0  0  0 
 12 16  1  0  0  0  0 
 17 13  2  0  0  0  0 
 16 18  2  0  0  0  0 
 18 17  1  0  0  0  0 
 19 18  1  0  0  0  0 
M  END
> <Name>
Methanesulfenamide, 1,1-dichloro-N-((dimethylamino)sulfonyl)-1-fluoro-N-(4-methylphenyl)-

> <Source>
NIST2DMolFile

> <Tox>
2.541

> <CAS>
731-27-1

$$$$

  CDK

 19 19  0  0  0  0  0  0  0  0999 V2000
    2.6612   -5.7579    0.0000 O   0  0  0  0  0  0  0  0  0  0  0  0
    3.3248   -4.6105    0.0000 C   0  0  0  0  0  0  0  0  0  0  0  0
    2.6612   -3.4561    0.0000 C   0  0  0  0  0  0  0  0  0  0  0  0
    4.6589   -4.6105    0.0000 C   0  0  0  0  0  0  0  0  0  0  0  0
    3.3248   -2.3018    0.0000 C   0  0  0  0  0  0  0  0  0  0  0  0
    1.3272   -3.4561    0.0000 C   0  0  0  0  0  0  0  0  0  0  0  0
    5.3225   -3.4561    0.0000 C   0  0  0  0  0  0  0  0  0  0  0  0
    5.3225   -5.7579    0.0000 C   0  0  0  0  0  0  0  0  0  0  0  0
    4.6589   -2.3018    0.0000 C   0  0  0  0  0  0  0  0  0  0  0  0
    1.3272   -4.7833    0.0000 C   0  0  0  0  0  0  0  0  0  0  0  0
    0.0000   -3.4561    0.0000 C   0  0  0  0  0  0  0  0  0  0  0  0
    1.3272   -2.1290    0.0000 C   0  0  0  0  0  0  0  0  0  0  0  0
    5.9860   -6.9123    0.0000 C   0  0  0  0  0  0  0  0  0  0  0  0
    4.1681   -6.4284    0.0000 C   0  0  0  0  0  0  0  0  0  0  0  0
    6.4699   -5.0943    0.0000 C   0  0  0  0  0  0  0  0  0  0  0  0
    5.3225   -1.1544    0.0000 C   0  0  0  0  0  0  0  0  0  0  0  0
    6.4699   -1.8179    0.0000 C   0  0  0  0  0  0  0  0  0  0  0  0
    4.1681   -0.4839    0.0000 C   0  0  0  0  0  0  0  0  0  0  0  0
    5.9860   -0.0000    0.0000 C   0  0  0  0  0  0  0  0  0  0  0  0
  1  2  1  0  0  0  0 
  2  3  2  0  0  0  0 
  2  4  1  0  0  0  0 
  3  5  1  0  0  0  0 
  3  6  1  0  0  0  0 
  7  4  2  0  0  0  0 
  4  8  1  0  0  0  0 
  5  9  2  0  0  0  0 
  6 10  1  0  0  0  0 
  6 11  1  0  0  0  0 
  6 12  1  0  0  0  0 
  9  7  1  0  0  0  0 
  8 13  1  0  0  0  0 
  8 14  1  0  0  0  0 
  8 15  1  0  0  0  0 
  9 16  1  0  0  0  0 
 16 17  1  0  0  0  0 
 16 18  1  0  0  0  0 
 16 19  1  0  0  0  0 
M  END
> <Name>
Phenol, 2,4,6-tri-tert-butyl- (6CI,7CI,8CI)

> <Source>
DSSTox2DMolFile

> <Tox>
2.196

> <CAS>
732-26-3

$$$$

  CDK

 20 20  0  0  0  0  0  0  0  0999 V2000
    0.0000    0.0000    0.0000 O   0  0  0  0  0  0  0  0  0  0  0  0
   -0.4000   -0.5400   -1.2400 C   0  0  0  0  0  0  0  0  0  0  0  0
   -0.1600   -2.0600   -1.2000 C   0  0  0  0  0  0  0  0  0  0  0  0
    0.3600    0.1000   -2.3400 C   0  0  0  0  0  0  0  0  0  0  0  0
   -0.9600   -2.6800   -0.1200 N   0  0  0  0  0  0  0  0  0  0  0  0
   -0.4200   -2.7200   -2.5400 C   0  0  0  0  0  0  0  0  0  0  0  0
   -0.3400    0.8200   -3.3200 C   0  0  0  0  0  0  0  0  0  0  0  0
    1.7400    0.0000   -2.3800 C   0  0  0  0  0  0  0  0  0  0  0  0
   -0.4000   -2.8600    1.1000 C   0  0  0  0  0  0  0  0  0  0  0  0
    0.7800   -2.6600   -3.3000 O   0  0  0  0  0  0  0  0  0  0  0  0
    0.3800    1.4400   -4.3800 C   0  0  0  0  0  0  0  0  0  0  0  0
    2.4600    0.6200   -3.4200 C   0  0  0  0  0  0  0  0  0  0  0  0
   -1.2200   -3.5200    2.1800 C   0  0  0  0  0  0  0  0  0  0  0  0
    0.7400   -2.5000    1.3200 O   0  0  0  0  0  0  0  0  0  0  0  0
    1.7800    1.3400   -4.4200 C   0  0  0  0  0  0  0  0  0  0  0  0
   -2.7000   -2.5800    2.4800 Cl  0  0  0  0  0  0  0  0  0  0  0  0
   -1.6600   -5.1800    1.7000 Cl  0  0  0  0  0  0  0  0  0  0  0  0
    2.5400    2.0000   -5.5200 C   0  0  0  0  0  0  0  0  0  0  0  0
    4.0400    1.7800   -5.5800 C   0  0  0  0  0  0  0  0  0  0  0  0
    1.9800    2.6800   -6.3400 O   0  0  0  0  0  0  0  0  0  0  0  0
  1  2  1  0  0  0  0 
  2  3  1  0  0  0  0 
  2  4  1  0  0  0  0 
  3  5  1  0  0  0  0 
  3  6  1  0  0  0  0 
  7  4  2  0  0  0  0 
  4  8  1  0  0  0  0 
  5  9  1  0  0  0  0 
 10  6  1  0  0  0  0 
 11  7  1  0  0  0  0 
 12  8  2  0  0  0  0 
  9 13  1  0  0  0  0 
  9 14  2  0  0  0  0 
 15 11  2  0  0  0  0 
 15 12  1  0  0  0  0 
 13 16  1  0  0  0  0 
 13 17  1  0  0  0  0 
 18 15  1  0  0  0  0 
 19 18  1  0  0  0  0 
 18 20  2  0  0  0  0 
M  END
> <Name>
Acetamide, N-(2-(4-acetylphenyl)-2-hydroxy-1-(hydroxymethyl)ethyl)-2,2-dichloro-, (R-(R*,R*))-

> <Source>
NIH3DMolFile

> <Tox>
2.465

> <CAS>
735-52-4

$$$$

  CDK

 24 23  0  0  0  0  0  0  0  0999 V2000
   -1.0727    3.0139   -4.0969 F   0  0  0  0  0  0  0  0  0  0  0  0
   -1.5235    2.8615   -2.8320 C   0  0  0  0  0  0  0  0  0  0  0  0
   -0.7516    3.6297   -2.0301 F   0  0  0  0  0  0  0  0  0  0  0  0
   -2.7776    3.3633   -2.7842 F   0  0  0  0  0  0  0  0  0  0  0  0
   -1.4868    1.3948   -2.3961 C   0  0  0  0  0  0  0  0  0  0  0  0
   -1.9482    1.3460   -1.0445 O   0  0  0  0  0  0  0  0  0  0  0  0
   -0.0256    0.8797   -2.4663 C   0  0  0  0  0  0  0  0  0  0  0  0
   -2.4520    0.5684   -3.2437 C   0  0  0  0  0  0  0  0  0  0  0  0
    0.1960   -0.5713   -2.0637 C   0  0  0  0  0  0  0  0  0  0  0  0
   -2.4761   -0.7222   -2.8429 F   0  0  0  0  0  0  0  0  0  0  0  0
   -3.7164    1.0390   -3.1782 F   0  0  0  0  0  0  0  0  0  0  0  0
   -2.0943    0.5806   -4.5482 F   0  0  0  0  0  0  0  0  0  0  0  0
    0.7798   -1.4231   -2.9328 C   0  0  0  0  0  0  0  0  0  0  0  0
   -0.2188   -0.9260   -0.6629 C   0  0  0  0  0  0  0  0  0  0  0  0
    1.1644   -2.8830   -2.7722 C   0  0  0  0  0  0  0  0  0  0  0  0
    0.2745   -3.5762   -1.8977 O   0  0  0  0  0  0  0  0  0  0  0  0
    2.5656   -2.9909   -2.1803 C   0  0  0  0  0  0  0  0  0  0  0  0
    1.0873   -3.5934   -4.1246 C   0  0  0  0  0  0  0  0  0  0  0  0
    2.9417   -4.2812   -2.0307 F   0  0  0  0  0  0  0  0  0  0  0  0
    3.4825   -2.3958   -2.9767 F   0  0  0  0  0  0  0  0  0  0  0  0
    2.6419   -2.4012   -0.9664 F   0  0  0  0  0  0  0  0  0  0  0  0
    1.4150   -4.9009   -4.0259 F   0  0  0  0  0  0  0  0  0  0  0  0
   -0.1605   -3.5287   -4.6425 F   0  0  0  0  0  0  0  0  0  0  0  0
    1.9255   -3.0286   -5.0236 F   0  0  0  0  0  0  0  0  0  0  0  0
  1  2  1  0  0  0  0 
  3  2  1  0  0  0  0 
  4  2  1  0  0  0  0 
  5  2  1  0  0  0  0 
  6  5  1  0  0  0  0 
  5  7  1  0  0  0  0 
  5  8  1  0  0  0  0 
  7  9  1  0  0  0  0 
 10  8  1  0  0  0  0 
 11  8  1  0  0  0  0 
 12  8  1  0  0  0  0 
  9 13  2  0  0  0  0 
  9 14  1  0  0  0  0 
 15 13  1  0  0  0  0 
 16 15  1  0  0  0  0 
 15 17  1  0  0  0  0 
 15 18  1  0  0  0  0 
 19 17  1  0  0  0  0 
 20 17  1  0  0  0  0 
 21 17  1  0  0  0  0 
 22 18  1  0  0  0  0 
 23 18  1  0  0  0  0 
 24 18  1  0  0  0  0 
M  END
> <Name>
3-Penten-1,5-diol, 3-methyl-1,1,5,5-tetrakis(trifluoromethyl)-

> <Source>
Chemidplus3DMolFile

> <Tox>
4.334

> <CAS>
756-91-2

$$$$

  CDK

  8  7  0  0  0  0  0  0  0  0999 V2000
    3.4566   -0.0000    0.0000 N   0  0  0  0  0  0  0  0  0  0  0  0
    2.3044   -0.6637    0.0000 C   0  0  0  0  0  0  0  0  0  0  0  0
    1.1522   -0.0000    0.0000 O   0  0  0  0  0  0  0  0  0  0  0  0
    2.3044   -1.9956    0.0000 N   0  0  0  0  0  0  0  0  0  0  0  0
    3.4566   -2.6593    0.0000 C   0  0  0  0  0  0  0  0  0  0  0  0
    1.1522   -2.6593    0.0000 N   0  0  0  0  0  0  0  0  0  0  0  0
    4.6088   -1.9956    0.0000 C   0  0  0  0  0  0  0  0  0  0  0  0
    0.0000   -1.9956    0.0000 O   0  0  0  0  0  0  0  0  0  0  0  0
  1  2  1  0  0  0  0 
  2  3  2  0  0  0  0 
  2  4  1  0  0  0  0 
  4  5  1  0  0  0  0 
  4  6  1  0  0  0  0 
  5  7  1  0  0  0  0 
  6  8  2  0  0  0  0 
M  END
> <Name>
Urea, 1-ethyl-1-nitroso-

> <Source>
DSSTox2DMolFile

> <Tox>
2.591

> <CAS>
759-73-9

$$$$

  CDK

  7  6  0  0  0  0  0  0  0  0999 V2000
    1.6500    0.0000    0.0000 O   0  0  0  0  0  0  0  0  0  0  0  0
    0.8250    0.0000    0.0000 S   0  0  0  0  0  0  0  0  0  0  0  0
    0.8250   -0.8250    0.0000 O   0  0  0  0  0  0  0  0  0  0  0  0
    0.0000    0.0000    0.0000 C   0  0  0  0  0  0  0  0  0  0  0  0
    0.8250    0.8250    0.0000 F   0  0  0  0  0  0  0  0  0  0  0  0
   -0.8250   -0.0000    0.0000 C   0  0  0  0  0  0  0  0  0  0  0  0
   -0.8250   -0.8250    0.0000 Cl  0  0  0  0  0  0  0  0  0  0  0  0
  1  2  2  0  0  0  0 
  2  3  2  0  0  0  0 
  2  4  1  0  0  0  0 
  2  5  1  0  0  0  0 
  4  6  1  0  0  0  0 
  6  7  1  0  0  0  0 
M  END
> <Name>
Ethanesulfonyl fluoride, 2-chloro-

> <Source>
Smiles

> <Tox>
3.467

> <CAS>
762-70-9

$$$$

  CDK

  6  5  0  0  0  0  0  0  0  0999 V2000
    1.3172   -0.0000    0.0000 C   0  0  0  0  0  0  0  0  0  0  0  0
    1.9917   -1.1578    0.0000 C   0  0  0  0  0  0  0  0  0  0  0  0
    0.0000   -0.0000    0.0000 Cl  0  0  0  0  0  0  0  0  0  0  0  0
    3.3194   -1.1578    0.0000 C   0  0  0  0  0  0  0  0  0  0  0  0
    3.9780   -0.0000    0.0000 C   0  0  0  0  0  0  0  0  0  0  0  0
    5.3111   -0.0000    0.0000 Cl  0  0  0  0  0  0  0  0  0  0  0  0
  1  2  1  0  0  0  0 
  1  3  1  0  0  0  0 
  2  4  2  0  0  0  0 
  4  5  1  0  0  0  0 
  5  6  1  0  0  0  0 
M  END
> <Name>
2-Butene, 1,4-dichloro-

> <Source>
DSSTox2DMolFile

> <Tox>
3.148

> <CAS>
764-41-0

$$$$

  CDK

  8  8  0  0  0  0  0  0  0  0999 V2000
    0.0000    0.4539    0.0000 C   0  0  0  0  0  0  0  0  0  0  0  0
    0.0000    1.4625    0.0000 C   0  0  0  0  0  0  0  0  0  0  0  0
    0.8573    0.0000    0.0000 C   0  0  0  0  0  0  0  0  0  0  0  0
    0.8573    1.9668    0.0000 C   0  0  0  0  0  0  0  0  0  0  0  0
    1.7147    0.4539    0.0000 C   0  0  0  0  0  0  0  0  0  0  0  0
    1.7147    1.4625    0.0000 C   0  0  0  0  0  0  0  0  0  0  0  0
    2.6224    1.9164    0.0000 C   0  0  0  0  0  0  0  0  0  0  0  0
    3.5302    2.4207    0.0000 N   0  0  0  0  0  0  0  0  0  0  0  0
  1  2  1  0  0  0  0 
  3  1  1  0  0  0  0 
  2  4  1  0  0  0  0 
  5  3  1  0  0  0  0 
  4  6  1  0  0  0  0 
  6  5  1  0  0  0  0 
  6  7  1  0  0  0  0 
  7  8  3  0  0  0  0 
M  END
> <Name>
Cyclohexanecarbonitrile

> <Source>
NIST2DMolFile

> <Tox>
3.135

> <CAS>
766-05-2

$$$$

  CDK

 20 21  0  0  0  0  0  0  0  0999 V2000
    8.0655   -3.9866    0.0000 N   0  0  0  0  0  0  0  0  0  0  0  0
    6.9132   -3.3184    0.0000 C   0  0  0  0  0  0  0  0  0  0  0  0
    9.2177   -3.3184    0.0000 C   0  0  0  0  0  0  0  0  0  0  0  0
    5.7610   -3.9866    0.0000 C   0  0  0  0  0  0  0  0  0  0  0  0
    6.9132   -1.9933    0.0000 C   0  0  0  0  0  0  0  0  0  0  0  0
    9.2177   -1.9933    0.0000 C   0  0  0  0  0  0  0  0  0  0  0  0
   10.3699   -3.9866    0.0000 C   0  0  0  0  0  0  0  0  0  0  0  0
    4.6088   -3.3184    0.0000 C   0  0  0  0  0  0  0  0  0  0  0  0
    5.7610   -1.3250    0.0000 C   0  0  0  0  0  0  0  0  0  0  0  0
   10.3699   -1.3250    0.0000 C   0  0  0  0  0  0  0  0  0  0  0  0
    4.6088   -1.9933    0.0000 C   0  0  0  0  0  0  0  0  0  0  0  0
   10.3699   -0.0000    0.0000 C   0  0  0  0  0  0  0  0  0  0  0  0
   11.5221   -1.9933    0.0000 C   0  0  0  0  0  0  0  0  0  0  0  0
    3.4566   -1.3250    0.0000 N   0  0  0  0  0  0  0  0  0  0  0  0
    2.3044   -1.9933    0.0000 C   0  0  0  0  0  0  0  0  0  0  0  0
    2.3044   -3.3184    0.0000 C   0  0  0  0  0  0  0  0  0  0  0  0
    1.1522   -1.3250    0.0000 C   0  0  0  0  0  0  0  0  0  0  0  0
    1.1522   -3.9866    0.0000 C   0  0  0  0  0  0  0  0  0  0  0  0
    0.0000   -1.9933    0.0000 C   0  0  0  0  0  0  0  0  0  0  0  0
    0.0000   -3.3184    0.0000 C   0  0  0  0  0  0  0  0  0  0  0  0
  1  2  1  0  0  0  0 
  1  3  1  0  0  0  0 
  2  4  2  0  0  0  0 
  2  5  1  0  0  0  0 
  3  6  1  0  0  0  0 
  3  7  1  0  0  0  0 
  4  8  1  0  0  0  0 
  9  5  2  0  0  0  0 
  6 10  1  0  0  0  0 
  8 11  2  0  0  0  0 
 11  9  1  0  0  0  0 
 10 12  1  0  0  0  0 
 10 13  1  0  0  0  0 
 11 14  1  0  0  0  0 
 14 15  1  0  0  0  0 
 15 16  2  0  0  0  0 
 15 17  1  0  0  0  0 
 16 18  1  0  0  0  0 
 19 17  2  0  0  0  0 
 18 20  2  0  0  0  0 
 20 19  1  0  0  0  0 
M  END
> <Name>
1,4-Benzenediamine, N-(1,3-dimethylbutyl)-N'-phenyl-

> <Source>
DSSTox2DMolFile

> <Tox>
1.875

> <CAS>
793-24-8

$$$$

  CDK

  7  6  0  0  0  0  0  0  0  0999 V2000
    0.5052    0.9093    0.0000 S   0  0  0  0  0  0  0  0  0  0  0  0
    0.0000    0.0000    0.0000 C   0  0  0  0  0  0  0  0  0  0  0  0
    1.5155    0.9093    0.0000 P   0  0  0  0  0  0  0  0  0  0  0  0
    2.0207    0.0000    0.0000 S   0  0  0  0  0  0  0  0  0  0  0  0
    2.0207    1.7176    0.0000 S   0  0  0  0  0  0  0  0  0  0  0  0
    2.9805    0.0000    0.0000 C   0  0  0  0  0  0  0  0  0  0  0  0
    1.5155    2.5763    0.0000 C   0  0  0  0  0  0  0  0  0  0  0  0
  1  2  1  0  0  0  0 
  1  3  1  0  0  0  0 
  3  4  1  0  0  0  0 
  3  5  1  0  0  0  0 
  4  6  1  0  0  0  0 
  5  7  1  0  0  0  0 
M  END
> <Name>
Phosphorotrithious acid, trimethyl ester

> <Source>
NIST2DMolFile

> <Tox>
3.215

> <CAS>
816-80-8

$$$$

  CDK

  6  6  0  0  0  0  0  0  0  0999 V2000
    0.0000   -1.0738    0.0000 C   0  0  0  0  0  0  0  0  0  0  0  0
    1.3304   -1.0738    0.0000 C   0  0  0  0  0  0  0  0  0  0  0  0
    2.1104   -0.0000    0.0000 C   0  0  0  0  0  0  0  0  0  0  0  0
    2.1104   -2.1509    0.0000 N   0  0  0  0  0  0  0  0  0  0  0  0
    3.3767   -0.4086    0.0000 N   0  0  0  0  0  0  0  0  0  0  0  0
    3.3767   -1.7390    0.0000 C   0  0  0  0  0  0  0  0  0  0  0  0
  1  2  1  0  0  0  0 
  2  3  2  0  0  0  0 
  2  4  1  0  0  0  0 
  3  5  1  0  0  0  0 
  6  4  2  0  0  0  0 
  5  6  1  0  0  0  0 
M  END
> <Name>
1H-Imidazole, 4-methyl-

> <Source>
DSSTox2DMolFile

> <Tox>
2.039

> <CAS>
822-36-6

$$$$

  CDK

 10 11  0  0  0  0  0  0  0  0999 V2000
    2.0716    2.5768    0.0000 C   0  0  0  0  0  0  0  0  0  0  0  0
    1.6168    2.2231    0.0000 O   0  0  0  0  0  0  0  0  0  0  0  0
    1.6168    1.2631    0.0000 C   0  0  0  0  0  0  0  0  0  0  0  0
    1.1621    1.0105    0.0000 P   0  0  0  0  0  0  0  0  0  0  0  0
    2.1726    0.2526    0.0000 C   0  0  0  0  0  0  0  0  0  0  0  0
    0.4042    1.8189    0.0000 C   0  0  0  0  0  0  0  0  0  0  0  0
    2.4252    1.4147    0.0000 C   0  0  0  0  0  0  0  0  0  0  0  0
    1.7179    0.0000    0.0000 O   0  0  0  0  0  0  0  0  0  0  0  0
    0.0000    1.4652    0.0000 O   0  0  0  0  0  0  0  0  0  0  0  0
    3.0315    0.6568    0.0000 C   0  0  0  0  0  0  0  0  0  0  0  0
  1  2  1  0  0  0  0 
  1  3  1  0  0  0  0 
  2  4  1  0  0  0  0 
  5  3  1  0  0  0  0 
  3  6  1  0  0  0  0 
  3  7  1  0  0  0  0 
  8  4  1  0  0  0  0 
  4  9  1  0  0  0  0 
  8  5  1  0  0  0  0 
  6  9  1  0  0  0  0 
  7 10  1  0  0  0  0 
M  END
> <Name>
1,3-Propanediol, 2-ethyl-2-(hydroxymethyl)-, cyclic phosphite (1:1)

> <Source>
NIST2DMolFile

> <Tox>
4.286

> <CAS>
824-11-3

$$$$

  CDK

 11 11  0  0  0  0  0  0  0  0999 V2000
    0.5038    0.0000    0.0000 C   0  0  0  0  0  0  0  0  0  0  0  0
    1.0076    0.8565    0.0000 C   0  0  0  0  0  0  0  0  0  0  0  0
    1.0076    1.8641    0.0000 C   0  0  0  0  0  0  0  0  0  0  0  0
    1.8641    0.3527    0.0000 N   0  0  0  0  0  0  0  0  0  0  0  0
    0.0000    0.8565    0.0000 C   0  0  0  0  0  0  0  0  0  0  0  0
    1.8641    2.3679    0.0000 C   0  0  0  0  0  0  0  0  0  0  0  0
    2.7205    0.8565    0.0000 C   0  0  0  0  0  0  0  0  0  0  0  0
    2.7205    1.8641    0.0000 C   0  0  0  0  0  0  0  0  0  0  0  0
    1.8641    3.3755    0.0000 O   0  0  0  0  0  0  0  0  0  0  0  0
    3.2244    0.0000    0.0000 C   0  0  0  0  0  0  0  0  0  0  0  0
    3.7282    0.8565    0.0000 C   0  0  0  0  0  0  0  0  0  0  0  0
  1  2  1  0  0  0  0 
  2  3  1  0  0  0  0 
  4  2  1  0  0  0  0 
  2  5  1  0  0  0  0 
  3  6  1  0  0  0  0 
  7  4  1  0  0  0  0 
  6  8  1  0  0  0  0 
  6  9  2  0  0  0  0 
  8  7  1  0  0  0  0 
  7 10  1  0  0  0  0 
  7 11  1  0  0  0  0 
M  END
> <Name>
4-Piperidinone, 2,2,6,6-tetramethyl-

> <Source>
NIST2DMolFile

> <Tox>
2.004

> <CAS>
826-36-8

$$$$

  CDK

 26 27  0  0  0  0  0  0  0  0999 V2000
    3.7805   -5.6004   12.1948 Cl  0  0  0  0  0  0  0  0  0  0  0  0
    3.6414   -5.5299   10.4203 C   0  0  0  0  0  0  0  0  0  0  0  0
    4.5538   -4.4644    9.8335 C   0  0  0  0  0  0  0  0  0  0  0  0
    4.4401   -4.4203    8.3892 N   0  0  0  0  0  0  0  0  0  0  0  0
    3.4864   -3.5837    7.7731 C   0  0  0  0  0  0  0  0  0  0  0  0
    5.3284   -5.2366    7.5858 C   0  0  0  0  0  0  0  0  0  0  0  0
    2.6361   -2.8016    8.5549 C   0  0  0  0  0  0  0  0  0  0  0  0
    3.3935   -3.5380    6.3821 C   0  0  0  0  0  0  0  0  0  0  0  0
    4.6280   -6.5000    7.1109 C   0  0  0  0  0  0  0  0  0  0  0  0
    1.6932   -1.9738    7.9457 C   0  0  0  0  0  0  0  0  0  0  0  0
    2.4506   -2.7102    5.7728 C   0  0  0  0  0  0  0  0  0  0  0  0
    5.7074   -7.5065    6.1134 Cl  0  0  0  0  0  0  0  0  0  0  0  0
    1.6004   -1.9281    6.5547 C   0  0  0  0  0  0  0  0  0  0  0  0
    0.6647   -1.1060    5.9495 O   0  0  0  0  0  0  0  0  0  0  0  0
   -0.0639   -1.6248    4.9236 C   0  0  0  0  0  0  0  0  0  0  0  0
   -0.6176   -2.9001    5.0369 C   0  0  0  0  0  0  0  0  0  0  0  0
   -0.2563   -0.8817    3.7590 C   0  0  0  0  0  0  0  0  0  0  0  0
   -1.3638   -3.4321    3.9854 C   0  0  0  0  0  0  0  0  0  0  0  0
   -1.0025   -1.4138    2.7075 C   0  0  0  0  0  0  0  0  0  0  0  0
   -1.5563   -2.6890    2.8207 C   0  0  0  0  0  0  0  0  0  0  0  0
   -2.3647   -3.2650    1.6809 C   0  0  0  0  0  0  0  0  0  0  0  0
   -1.5067   -4.0530    0.6788 C   0  0  0  0  0  0  0  0  0  0  0  0
   -2.3519   -4.5733   -0.3935 N   0  0  0  0  0  0  0  0  0  0  0  0
   -0.8336   -5.2530    1.3225 C   0  0  0  0  0  0  0  0  0  0  0  0
    0.4174   -4.9666    1.7678 O   0  0  0  0  0  0  0  0  0  0  0  0
   -1.3301   -6.3686    1.4130 O   0  0  0  0  0  0  0  0  0  0  0  0
  1  2  1  0  0  0  0 
  3  2  1  0  0  0  0 
  4  3  1  0  0  0  0 
  4  5  1  0  0  0  0 
  4  6  1  0  0  0  0 
  5  7  2  0  0  0  0 
  5  8  1  0  0  0  0 
  6  9  1  0  0  0  0 
  7 10  1  0  0  0  0 
  8 11  2  0  0  0  0 
 12  9  1  0  0  0  0 
 13 10  2  0  0  0  0 
 13 11  1  0  0  0  0 
 14 13  1  0  0  0  0 
 14 15  1  0  0  0  0 
 15 16  2  0  0  0  0 
 15 17  1  0  0  0  0 
 18 16  1  0  0  0  0 
 19 17  2  0  0  0  0 
 20 18  2  0  0  0  0 
 20 19  1  0  0  0  0 
 21 20  1  0  0  0  0 
 21 22  1  0  0  0  0 
 23 22  1  0  0  0  0 
 22 24  1  0  0  0  0 
 25 24  1  0  0  0  0 
 26 24  2  0  0  0  0 
M  END
> <Name>
Alanine, 3-(p-(p-(bis(2-chloroethyl)amino)phenoxy)phenyl)-, DL-

> <Source>
Chemidplus3DMolFile

> <Tox>
2.807

> <CAS>
857-95-4

$$$$

  CDK

  6  5  0  0  0  0  0  0  0  0999 V2000
    1.6373   -0.0000    0.0000 O   0  0  0  0  0  0  0  0  0  0  0  0
    2.3034   -1.1517    0.0000 P   0  0  0  0  0  0  0  0  0  0  0  0
    2.9694   -2.3034    0.0000 O   0  0  0  0  0  0  0  0  0  0  0  0
    1.1517   -1.8178    0.0000 O   0  0  0  0  0  0  0  0  0  0  0  0
    4.2973   -2.3034    0.0000 C   0  0  0  0  0  0  0  0  0  0  0  0
    0.0000   -1.1517    0.0000 C   0  0  0  0  0  0  0  0  0  0  0  0
  1  2  2  0  0  0  0 
  2  3  1  0  0  0  0 
  2  4  1  0  0  0  0 
  3  5  1  0  0  0  0 
  4  6  1  0  0  0  0 
M  END
> <Name>
Phosphonic acid, dimethyl ester

> <Source>
DSSTox2DMolFile

> <Tox>
1.559

> <CAS>
868-85-9

$$$$

  CDK

  7  7  0  0  0  0  0  0  0  0999 V2000
    0.0000   -2.3405    0.0000 O   0  0  0  0  0  0  0  0  0  0  0  0
    1.3291   -2.3405    0.0000 C   0  0  0  0  0  0  0  0  0  0  0  0
    2.1116   -1.2642    0.0000 N   0  0  0  0  0  0  0  0  0  0  0  0
    2.1116   -3.4168    0.0000 C   0  0  0  0  0  0  0  0  0  0  0  0
    3.3758   -1.6742    0.0000 C   0  0  0  0  0  0  0  0  0  0  0  0
    1.7015   -0.0000    0.0000 C   0  0  0  0  0  0  0  0  0  0  0  0
    3.3758   -3.0067    0.0000 C   0  0  0  0  0  0  0  0  0  0  0  0
  1  2  2  0  0  0  0 
  2  3  1  0  0  0  0 
  2  4  1  0  0  0  0 
  3  5  1  0  0  0  0 
  3  6  1  0  0  0  0 
  7  4  1  0  0  0  0 
  5  7  1  0  0  0  0 
M  END
> <Name>
2-Pyrrolidinone, 1-methyl-

> <Source>
DSSTox2DMolFile

> <Tox>
1.404

> <CAS>
872-50-4

$$$$

  CDK

 16 16  0  0  0  0  0  0  0  0999 V2000
    1.9879   -3.4563    0.0000 C   0  0  0  0  0  0  0  0  0  0  0  0
    1.3328   -2.3042    0.0000 C   0  0  0  0  0  0  0  0  0  0  0  0
    3.3207   -3.4563    0.0000 C   0  0  0  0  0  0  0  0  0  0  0  0
    0.0000   -2.3042    0.0000 Cl  0  0  0  0  0  0  0  0  0  0  0  0
    1.9879   -1.1521    0.0000 C   0  0  0  0  0  0  0  0  0  0  0  0
    3.9871   -2.3042    0.0000 C   0  0  0  0  0  0  0  0  0  0  0  0
    3.3207   -1.1521    0.0000 C   0  0  0  0  0  0  0  0  0  0  0  0
    5.3199   -2.3042    0.0000 O   0  0  0  0  0  0  0  0  0  0  0  0
    5.9750   -3.4563    0.0000 C   0  0  0  0  0  0  0  0  0  0  0  0
    7.3078   -3.4563    0.0000 C   0  0  0  0  0  0  0  0  0  0  0  0
    7.9743   -4.6083    0.0000 O   0  0  0  0  0  0  0  0  0  0  0  0
    7.9743   -2.3042    0.0000 C   0  0  0  0  0  0  0  0  0  0  0  0
    9.3071   -2.3042    0.0000 O   0  0  0  0  0  0  0  0  0  0  0  0
    9.9622   -1.1521    0.0000 C   0  0  0  0  0  0  0  0  0  0  0  0
   11.2950   -1.1521    0.0000 N   0  0  0  0  0  0  0  0  0  0  0  0
    9.3071   -0.0000    0.0000 O   0  0  0  0  0  0  0  0  0  0  0  0
  1  2  2  0  0  0  0 
  1  3  1  0  0  0  0 
  2  4  1  0  0  0  0 
  2  5  1  0  0  0  0 
  6  3  2  0  0  0  0 
  5  7  2  0  0  0  0 
  7  6  1  0  0  0  0 
  6  8  1  0  0  0  0 
  8  9  1  0  0  0  0 
  9 10  1  0  0  0  0 
 10 11  1  0  0  0  0 
 10 12  1  0  0  0  0 
 12 13  1  0  0  0  0 
 13 14  1  0  0  0  0 
 14 15  1  0  0  0  0 
 14 16  2  0  0  0  0 
M  END
> <Name>
1,2-Propanediol, 3-(p-chlorophenoxy)-, 1-carbamate (8CI)

> <Source>
DSSTox2DMolFile

> <Tox>
2.519

> <CAS>
886-74-8

$$$$

  CDK

 34 37  0  0  0  0  0  0  0  0999 V2000
   13.2674   -5.5856    0.0000 C   0  0  0  0  0  0  0  0  0  0  0  0
   13.0419   -6.8990    0.0000 C   0  0  0  0  0  0  0  0  0  0  0  0
   12.2458   -4.7232    0.0000 C   0  0  0  0  0  0  0  0  0  0  0  0
   11.7815   -7.3501    0.0000 C   0  0  0  0  0  0  0  0  0  0  0  0
   10.9987   -5.1876    0.0000 C   0  0  0  0  0  0  0  0  0  0  0  0
   10.7731   -6.5010    0.0000 C   0  0  0  0  0  0  0  0  0  0  0  0
    9.9771   -4.3252    0.0000 C   0  0  0  0  0  0  0  0  0  0  0  0
   10.9987   -3.4761    0.0000 C   0  0  0  0  0  0  0  0  0  0  0  0
    9.3137   -5.4794    0.0000 C   0  0  0  0  0  0  0  0  0  0  0  0
    9.3137   -3.1709    0.0000 C   0  0  0  0  0  0  0  0  0  0  0  0
   12.2458   -3.9272    0.0000 O   0  0  0  0  0  0  0  0  0  0  0  0
   10.7731   -2.1626    0.0000 O   0  0  0  0  0  0  0  0  0  0  0  0
    7.9870   -5.4794    0.0000 C   0  0  0  0  0  0  0  0  0  0  0  0
    7.9870   -3.1709    0.0000 C   0  0  0  0  0  0  0  0  0  0  0  0
   11.7815   -1.3135    0.0000 C   0  0  0  0  0  0  0  0  0  0  0  0
    7.3236   -4.3252    0.0000 N   0  0  0  0  0  0  0  0  0  0  0  0
   11.5559   -0.0000    0.0000 C   0  0  0  0  0  0  0  0  0  0  0  0
    5.9836   -4.3252    0.0000 C   0  0  0  0  0  0  0  0  0  0  0  0
    5.3202   -3.1709    0.0000 C   0  0  0  0  0  0  0  0  0  0  0  0
    3.9935   -3.1709    0.0000 C   0  0  0  0  0  0  0  0  0  0  0  0
    3.9935   -1.8442    0.0000 C   0  0  0  0  0  0  0  0  0  0  0  0
    3.9935   -4.5109    0.0000 C   0  0  0  0  0  0  0  0  0  0  0  0
    2.6667   -3.1709    0.0000 C   0  0  0  0  0  0  0  0  0  0  0  0
    3.9935   -0.5174    0.0000 N   0  0  0  0  0  0  0  0  0  0  0  0
    5.1478   -5.1743    0.0000 C   0  0  0  0  0  0  0  0  0  0  0  0
    2.8392   -5.1743    0.0000 C   0  0  0  0  0  0  0  0  0  0  0  0
    1.9901   -4.3252    0.0000 C   0  0  0  0  0  0  0  0  0  0  0  0
    1.9901   -2.0299    0.0000 C   0  0  0  0  0  0  0  0  0  0  0  0
    5.1478   -6.5010    0.0000 C   0  0  0  0  0  0  0  0  0  0  0  0
    2.8392   -6.5010    0.0000 C   0  0  0  0  0  0  0  0  0  0  0  0
    0.6634   -4.3252    0.0000 C   0  0  0  0  0  0  0  0  0  0  0  0
    0.6634   -2.0299    0.0000 C   0  0  0  0  0  0  0  0  0  0  0  0
    3.9935   -7.1644    0.0000 C   0  0  0  0  0  0  0  0  0  0  0  0
    0.0000   -3.1709    0.0000 C   0  0  0  0  0  0  0  0  0  0  0  0
  1  2  2  0  0  0  0 
  1  3  1  0  0  0  0 
  2  4  1  0  0  0  0 
  5  3  2  0  0  0  0 
  4  6  2  0  0  0  0 
  6  5  1  0  0  0  0 
  5  7  1  0  0  0  0 
  7  8  1  0  0  0  0 
  7  9  1  0  0  0  0 
  7 10  1  0  0  0  0 
  8 11  2  0  0  0  0 
  8 12  1  0  0  0  0 
  9 13  1  0  0  0  0 
 14 10  1  0  0  0  0 
 12 15  1  0  0  0  0 
 13 16  1  0  0  0  0 
 16 14  1  0  0  0  0 
 15 17  1  0  0  0  0 
 16 18  1  0  0  0  0 
 18 19  1  0  0  0  0 
 19 20  1  0  0  0  0 
 20 21  1  0  0  0  0 
 20 22  1  0  0  0  0 
 20 23  1  0  0  0  0 
 21 24  3  0  0  0  0 
 22 25  2  0  0  0  0 
 22 26  1  0  0  0  0 
 23 27  2  0  0  0  0 
 23 28  1  0  0  0  0 
 25 29  1  0  0  0  0 
 30 26  2  0  0  0  0 
 27 31  1  0  0  0  0 
 32 28  2  0  0  0  0 
 29 33  2  0  0  0  0 
 33 30  1  0  0  0  0 
 31 34  2  0  0  0  0 
 34 32  1  0  0  0  0 
M  END
> <Name>
4-Piperidinecarboxylic acid, 1-(3-cyano-3,3-diphenylpropyl)-4-phenyl-, ethyl ester (9CI)

> <Source>
DSSTox2DMolFile

> <Tox>
3.311

> <CAS>
915-30-0

$$$$

  CDK

 11 10  0  0  0  0  0  0  0  0999 V2000
    5.7570   -0.6635    0.0000 O   0  0  0  0  0  0  0  0  0  0  0  0
    4.6098   -0.0000    0.0000 N   0  0  0  0  0  0  0  0  0  0  0  0
    3.4556   -0.6635    0.0000 N   0  0  0  0  0  0  0  0  0  0  0  0
    3.4556   -1.9973    0.0000 C   0  0  0  0  0  0  0  0  0  0  0  0
    2.3014   -0.0000    0.0000 C   0  0  0  0  0  0  0  0  0  0  0  0
    4.6098   -2.6608    0.0000 C   0  0  0  0  0  0  0  0  0  0  0  0
    1.1542   -0.6635    0.0000 C   0  0  0  0  0  0  0  0  0  0  0  0
    5.7570   -1.9973    0.0000 C   0  0  0  0  0  0  0  0  0  0  0  0
    1.1542   -1.9973    0.0000 C   0  0  0  0  0  0  0  0  0  0  0  0
    6.9112   -2.6608    0.0000 C   0  0  0  0  0  0  0  0  0  0  0  0
    0.0000   -2.6608    0.0000 C   0  0  0  0  0  0  0  0  0  0  0  0
  1  2  2  0  0  0  0 
  2  3  1  0  0  0  0 
  3  4  1  0  0  0  0 
  3  5  1  0  0  0  0 
  4  6  1  0  0  0  0 
  5  7  1  0  0  0  0 
  6  8  1  0  0  0  0 
  7  9  1  0  0  0  0 
  8 10  1  0  0  0  0 
  9 11  1  0  0  0  0 
M  END
> <Name>
1-Butanamine, N-butyl-N-nitroso-

> <Source>
DSSTox2DMolFile

> <Tox>
2.120

> <CAS>
924-16-3

$$$$

  CDK

 14 13  0  0  0  0  0  0  0  0999 V2000
    4.3073    1.5026    0.0000 C   0  0  0  0  0  0  0  0  0  0  0  0
    3.4559    1.0017    0.0000 C   0  0  0  0  0  0  0  0  0  0  0  0
    5.2088    1.0017    0.0000 C   0  0  0  0  0  0  0  0  0  0  0  0
    2.6044    1.5026    0.0000 O   0  0  0  0  0  0  0  0  0  0  0  0
    3.4559    0.0000    0.0000 O   0  0  0  0  0  0  0  0  0  0  0  0
    6.0603    1.5026    0.0000 C   0  0  0  0  0  0  0  0  0  0  0  0
    1.7029    1.0017    0.0000 C   0  0  0  0  0  0  0  0  0  0  0  0
    6.9117    1.0017    0.0000 O   0  0  0  0  0  0  0  0  0  0  0  0
    6.0603    2.5043    0.0000 O   0  0  0  0  0  0  0  0  0  0  0  0
    0.8514    1.5026    0.0000 C   0  0  0  0  0  0  0  0  0  0  0  0
    7.8133    1.5026    0.0000 C   0  0  0  0  0  0  0  0  0  0  0  0
    0.0000    1.0017    0.0000 C   0  0  0  0  0  0  0  0  0  0  0  0
    8.6647    1.0017    0.0000 C   0  0  0  0  0  0  0  0  0  0  0  0
    9.5162    1.5026    0.0000 C   0  0  0  0  0  0  0  0  0  0  0  0
  1  2  1  0  0  0  0 
  1  3  1  0  0  0  0 
  2  4  1  0  0  0  0 
  2  5  2  0  0  0  0 
  3  6  1  0  0  0  0 
  4  7  1  0  0  0  0 
  6  8  1  0  0  0  0 
  6  9  2  0  0  0  0 
  7 10  1  0  0  0  0 
  8 11  1  0  0  0  0 
 10 12  1  0  0  0  0 
 11 13  1  0  0  0  0 
 13 14  1  0  0  0  0 
M  END
> <Name>
Butanedioic acid, dipropyl ester

> <Source>
NIST2DMolFile

> <Tox>
1.494

> <CAS>
925-15-5

$$$$

  CDK

  9  8  0  0  0  0  0  0  0  0999 V2000
    3.1882   -0.2366    0.4530 C   0  0  0  0  0  0  0  0  0  0  0  0
    2.2466    0.7873   -0.1983 C   0  0  0  0  0  0  0  0  0  0  0  0
    3.1238   -1.5026   -0.1431 O   0  0  0  0  0  0  0  0  0  0  0  0
    0.9395    0.5076    0.2788 O   0  0  0  0  0  0  0  0  0  0  0  0
   -0.0596    1.3265   -0.3075 C   0  0  0  0  0  0  0  0  0  0  0  0
   -1.4141    0.8412    0.2201 C   0  0  0  0  0  0  0  0  0  0  0  0
   -1.8329   -0.2267   -0.6264 O   0  0  0  0  0  0  0  0  0  0  0  0
   -3.0098   -0.8426   -0.3231 C   0  0  0  0  0  0  0  0  0  0  0  0
   -3.8604   -0.5635    0.6650 C   0  0  0  0  0  0  0  0  0  0  0  0
  1  2  1  0  0  0  0 
  1  3  1  0  0  0  0 
  2  4  1  0  0  0  0 
  4  5  1  0  0  0  0 
  5  6  1  0  0  0  0 
  6  7  1  0  0  0  0 
  7  8  1  0  0  0  0 
  8  9  2  0  0  0  0 
M  END
> <Name>
Ethanol, 2-(2-(ethenyloxy)ethoxy)- (9CI)

> <Source>
DougDB3DMolFile

> <Tox>
1.428

> <CAS>
929-37-3

$$$$

  CDK

  9  9  0  0  0  0  0  0  0  0999 V2000
    1.3098   -1.4821    0.0000 C   0  0  0  0  0  0  0  0  0  0  0  0
    0.0000   -1.7135    0.0000 N   0  0  0  0  0  0  0  0  0  0  0  0
    2.6195   -1.2507    0.0000 C   0  0  0  0  0  0  0  0  0  0  0  0
    2.1665   -0.0000    0.0000 O   0  0  0  0  0  0  0  0  0  0  0  0
    3.7717   -0.5859    0.0000 C   0  0  0  0  0  0  0  0  0  0  0  0
    2.6195   -2.5801    0.0000 C   0  0  0  0  0  0  0  0  0  0  0  0
    4.9239   -1.2507    0.0000 C   0  0  0  0  0  0  0  0  0  0  0  0
    3.7717   -3.2449    0.0000 C   0  0  0  0  0  0  0  0  0  0  0  0
    4.9239   -2.5801    0.0000 C   0  0  0  0  0  0  0  0  0  0  0  0
  1  2  3  0  0  0  0 
  1  3  1  0  0  0  0 
  3  4  1  0  0  0  0 
  3  5  1  0  0  0  0 
  3  6  1  0  0  0  0 
  5  7  1  0  0  0  0 
  8  6  1  0  0  0  0 
  7  9  1  0  0  0  0 
  9  8  1  0  0  0  0 
M  END
> <Name>
1-Hydroxy-1-cyclohexanecarbonitrile

> <Source>
DSSTox2DMolFile

> <Tox>
4.097

> <CAS>
931-97-5

$$$$

  CDK

  9  9  0  0  0  0  0  0  0  0999 V2000
    0.0000   -2.2496    0.0000 O   0  0  0  0  0  0  0  0  0  0  0  0
    1.1506   -2.9152    0.0000 N   0  0  0  0  0  0  0  0  0  0  0  0
    2.3012   -2.2496    0.0000 N   0  0  0  0  0  0  0  0  0  0  0  0
    2.2238   -0.9390    0.0000 C   0  0  0  0  0  0  0  0  0  0  0  0
    3.4002   -2.9977    0.0000 C   0  0  0  0  0  0  0  0  0  0  0  0
    3.1628   -0.0000    0.0000 C   0  0  0  0  0  0  0  0  0  0  0  0
    4.6746   -2.6056    0.0000 C   0  0  0  0  0  0  0  0  0  0  0  0
    4.4940   -0.2167    0.0000 C   0  0  0  0  0  0  0  0  0  0  0  0
    5.1596   -1.3673    0.0000 C   0  0  0  0  0  0  0  0  0  0  0  0
  1  2  2  0  0  0  0 
  2  3  1  0  0  0  0 
  3  4  1  0  0  0  0 
  3  5  1  0  0  0  0 
  4  6  1  0  0  0  0 
  7  5  1  0  0  0  0 
  6  8  1  0  0  0  0 
  9  7  1  0  0  0  0 
  8  9  1  0  0  0  0 
M  END
> <Name>
1H-Azepine, hexahydro-1-nitroso-

> <Source>
DSSTox2DMolFile

> <Tox>
2.581

> <CAS>
932-83-2

$$$$

  CDK

 11 11  0  0  0  0  0  0  0  0999 V2000
    1.5383    0.8436    0.0000 N   0  0  0  0  0  0  0  0  0  0  0  0
    2.0346    1.7368    0.0000 C   0  0  0  0  0  0  0  0  0  0  0  0
    0.4962    0.8436    0.0000 N   0  0  0  0  0  0  0  0  0  0  0  0
    2.0346    0.0000    0.0000 C   0  0  0  0  0  0  0  0  0  0  0  0
    3.0271    1.7368    0.0000 C   0  0  0  0  0  0  0  0  0  0  0  0
    0.0000    0.0000    0.0000 O   0  0  0  0  0  0  0  0  0  0  0  0
    3.5233    2.5805    0.0000 C   0  0  0  0  0  0  0  0  0  0  0  0
    3.5233    0.8436    0.0000 C   0  0  0  0  0  0  0  0  0  0  0  0
    4.5158    2.5805    0.0000 C   0  0  0  0  0  0  0  0  0  0  0  0
    4.5158    0.8436    0.0000 C   0  0  0  0  0  0  0  0  0  0  0  0
    5.0120    1.7368    0.0000 C   0  0  0  0  0  0  0  0  0  0  0  0
  1  2  1  0  0  0  0 
  1  3  1  0  0  0  0 
  1  4  1  0  0  0  0 
  2  5  1  0  0  0  0 
  3  6  2  0  0  0  0 
  7  5  2  0  0  0  0 
  5  8  1  0  0  0  0 
  9  7  1  0  0  0  0 
  8 10  2  0  0  0  0 
 11  9  2  0  0  0  0 
 10 11  1  0  0  0  0 
M  END
> <Name>
N-Methyl-N-nitroso-benzenemethanamine

> <Source>
NIST2DMolFile

> <Tox>
3.921

> <CAS>
937-40-6

$$$$

  CDK

 12 12  0  0  0  0  0  0  0  0999 V2000
    3.3824   -0.2150   -0.0522 C   0  0  0  0  0  0  0  0  0  0  0  0
    2.0108    0.1671   -0.0224 C   0  0  0  0  0  0  0  0  0  0  0  0
    4.5000   -0.5223   -0.0757 N   0  0  0  0  0  0  0  0  0  0  0  0
    1.0203   -0.8143   -0.0288 C   0  0  0  0  0  0  0  0  0  0  0  0
    1.6721    1.5252    0.0123 C   0  0  0  0  0  0  0  0  0  0  0  0
   -0.3285   -0.4393   -0.0069 C   0  0  0  0  0  0  0  0  0  0  0  0
    0.3357    1.8919    0.0441 C   0  0  0  0  0  0  0  0  0  0  0  0
   -0.6687    0.9199    0.0350 C   0  0  0  0  0  0  0  0  0  0  0  0
   -1.3732   -1.5218   -0.0335 N   0  0  0  0  0  0  0  0  0  0  0  0
   -2.2563    1.4428    0.0911 Cl  0  0  0  0  0  0  0  0  0  0  0  0
   -2.4217   -1.3208   -0.6075 O   0  0  0  0  0  0  0  0  0  0  0  0
   -1.1297   -2.5777    0.5125 O   0  0  0  0  0  0  0  0  0  0  0  0
  1  2  1  0  0  0  0 
  1  3  3  0  0  0  0 
  2  4  1  0  0  0  0 
  2  5  2  0  0  0  0 
  4  6  2  0  0  0  0 
  7  5  1  0  0  0  0 
  6  8  1  0  0  0  0 
  6  9  1  0  0  0  0 
  8  7  2  0  0  0  0 
  8 10  1  0  0  0  0 
  9 11  2  0  0  0  0 
  9 12  1  0  0  0  0 
M  CHG  1   9   1
M  CHG  1  12  -1
M  END
> <Name>
Benzonitrile, 4-chloro-3-nitro-

> <Source>
DougDB3DMolFile

> <Tox>
1.950

> <CAS>
939-80-0

$$$$

  CDK

 12 12  0  0  0  0  0  0  0  0999 V2000
    1.7315    1.5012    0.0000 C   0  0  0  0  0  0  0  0  0  0  0  0
    1.7347    0.5054    0.0000 C   0  0  0  0  0  0  0  0  0  0  0  0
    0.8646    2.0019    0.0000 C   0  0  0  0  0  0  0  0  0  0  0  0
    2.5971    1.0011    0.0000 C   0  0  0  0  0  0  0  0  0  0  0  0
    0.8738    0.0022    0.0000 C   0  0  0  0  0  0  0  0  0  0  0  0
    0.0000    1.5014    0.0000 C   0  0  0  0  0  0  0  0  0  0  0  0
    3.4616    1.5016    0.0000 C   0  0  0  0  0  0  0  0  0  0  0  0
    0.0010    0.5005    0.0000 C   0  0  0  0  0  0  0  0  0  0  0  0
    4.3262    1.0011    0.0000 Si  0  0  0  0  0  0  0  0  0  0  0  0
    5.3273    1.0011    0.0000 Cl  0  0  0  0  0  0  0  0  0  0  0  0
    4.3211    0.0000    0.0000 Cl  0  0  0  0  0  0  0  0  0  0  0  0
    4.3211    2.0021    0.0000 Cl  0  0  0  0  0  0  0  0  0  0  0  0
  1  2  1  0  0  0  0 
  3  1  2  0  0  0  0 
  4  1  1  0  0  0  0 
  2  5  2  0  0  0  0 
  6  3  1  0  0  0  0 
  7  4  1  0  0  0  0 
  5  8  1  0  0  0  0 
  8  6  2  0  0  0  0 
  9  7  1  0  0  0  0 
  9 10  1  0  0  0  0 
  9 11  1  0  0  0  0 
  9 12  1  0  0  0  0 
M  END
> <Name>
Silane, trichloro(2-phenylethyl)-

> <Source>
NIST2DMolFile

> <Tox>
1.928

> <CAS>
940-41-0

$$$$

  CDK

 14 14  0  0  0  0  0  0  0  0999 V2000
    2.2580   -2.3071    0.0000 P   0  0  0  0  0  0  0  0  0  0  0  0
    3.5693   -2.6507    0.0000 S   0  0  0  0  0  0  0  0  0  0  0  0
    2.9522   -3.4431    0.0000 O   0  0  0  0  0  0  0  0  0  0  0  0
    1.1500   -2.9522    0.0000 C   0  0  0  0  0  0  0  0  0  0  0  0
    2.2580   -0.9817    0.0000 S   0  0  0  0  0  0  0  0  0  0  0  0
    4.6772   -1.9915    0.0000 C   0  0  0  0  0  0  0  0  0  0  0  0
    4.2775   -3.4431    0.0000 C   0  0  0  0  0  0  0  0  0  0  0  0
    0.0000   -2.3071    0.0000 C   0  0  0  0  0  0  0  0  0  0  0  0
    5.8623   -2.6507    0.0000 C   0  0  0  0  0  0  0  0  0  0  0  0
    4.6772   -0.6662    0.0000 C   0  0  0  0  0  0  0  0  0  0  0  0
    4.9437   -4.6422    0.0000 C   0  0  0  0  0  0  0  0  0  0  0  0
    7.0123   -1.9915    0.0000 C   0  0  0  0  0  0  0  0  0  0  0  0
    5.8623   -0.0000    0.0000 C   0  0  0  0  0  0  0  0  0  0  0  0
    7.0123   -0.6662    0.0000 C   0  0  0  0  0  0  0  0  0  0  0  0
  1  2  1  0  0  0  0 
  1  3  1  0  0  0  0 
  1  4  1  0  0  0  0 
  1  5  2  0  0  0  0 
  2  6  1  0  0  0  0 
  3  7  1  0  0  0  0 
  4  8  1  0  0  0  0 
  6  9  2  0  0  0  0 
  6 10  1  0  0  0  0 
  7 11  1  0  0  0  0 
  9 12  1  0  0  0  0 
 10 13  2  0  0  0  0 
 12 14  2  0  0  0  0 
 13 14  1  0  0  0  0 
M  END
> <Name>
Phosphonodithioic acid, ethyl-, O-ethyl S-phenyl ester

> <Source>
DSSTox2DMolFile

> <Tox>
4.914

> <CAS>
944-22-9

$$$$

  CDK

 15 15  0  0  0  0  0  0  0  0999 V2000
    2.6121    2.6624    0.0000 P   0  0  0  0  0  0  0  0  0  0  0  0
    3.1145    3.5163    0.0000 N   0  0  0  0  0  0  0  0  0  0  0  0
    2.1098    1.7582    0.0000 O   0  0  0  0  0  0  0  0  0  0  0  0
    1.7079    3.1145    0.0000 O   0  0  0  0  0  0  0  0  0  0  0  0
    3.4661    2.1600    0.0000 O   0  0  0  0  0  0  0  0  0  0  0  0
    4.1192    3.5163    0.0000 C   0  0  0  0  0  0  0  0  0  0  0  0
    2.6121    0.9042    0.0000 C   0  0  0  0  0  0  0  0  0  0  0  0
    0.8540    2.6121    0.0000 C   0  0  0  0  0  0  0  0  0  0  0  0
    4.6717    4.3201    0.0000 S   0  0  0  0  0  0  0  0  0  0  0  0
    4.6717    2.7126    0.0000 S   0  0  0  0  0  0  0  0  0  0  0  0
    2.1098    0.0000    0.0000 C   0  0  0  0  0  0  0  0  0  0  0  0
    0.0000    3.1145    0.0000 C   0  0  0  0  0  0  0  0  0  0  0  0
    5.6262    4.0187    0.0000 C   0  0  0  0  0  0  0  0  0  0  0  0
    5.6262    3.0140    0.0000 C   0  0  0  0  0  0  0  0  0  0  0  0
    6.4299    4.6215    0.0000 C   0  0  0  0  0  0  0  0  0  0  0  0
  1  2  1  0  0  0  0 
  1  3  1  0  0  0  0 
  1  4  1  0  0  0  0 
  1  5  2  0  0  0  0 
  2  6  2  0  0  0  0 
  3  7  1  0  0  0  0 
  4  8  1  0  0  0  0 
  9  6  1  0  0  0  0 
  6 10  1  0  0  0  0 
  7 11  1  0  0  0  0 
  8 12  1  0  0  0  0 
 13  9  1  0  0  0  0 
 10 14  1  0  0  0  0 
 14 13  1  0  0  0  0 
 13 15  1  0  0  0  0 
M  END
> <Name>
Phosphoramidic acid, (4-methyl-1,3-dithiolan-2-ylidene)-, diethyl ester

> <Source>
NIST2DMolFile

> <Tox>
4.476

> <CAS>
950-10-7

$$$$

  CDK

 18 18  0  0  0  0  0  0  0  0999 V2000
    1.7006    3.0011    0.0000 N   0  0  0  0  0  0  0  0  0  0  0  0
    0.8503    3.4513    0.0000 C   0  0  0  0  0  0  0  0  0  0  0  0
    1.7006    1.9507    0.0000 C   0  0  0  0  0  0  0  0  0  0  0  0
    2.6010    3.5013    0.0000 C   0  0  0  0  0  0  0  0  0  0  0  0
    0.8503    4.4516    0.0000 C   0  0  0  0  0  0  0  0  0  0  0  0
    0.0000    2.9511    0.0000 O   0  0  0  0  0  0  0  0  0  0  0  0
    2.6010    1.5006    0.0000 N   0  0  0  0  0  0  0  0  0  0  0  0
    3.4513    3.0011    0.0000 N   0  0  0  0  0  0  0  0  0  0  0  0
    1.7006    5.0018    0.0000 C   0  0  0  0  0  0  0  0  0  0  0  0
    3.4513    1.9507    0.0000 C   0  0  0  0  0  0  0  0  0  0  0  0
    2.6010    0.5002    0.0000 C   0  0  0  0  0  0  0  0  0  0  0  0
    4.2516    3.4513    0.0000 C   0  0  0  0  0  0  0  0  0  0  0  0
    1.7006    0.0000    0.0000 C   0  0  0  0  0  0  0  0  0  0  0  0
    3.4513    0.0000    0.0000 O   0  0  0  0  0  0  0  0  0  0  0  0
    4.2516    4.4516    0.0000 O   0  0  0  0  0  0  0  0  0  0  0  0
    5.1519    2.9511    0.0000 C   0  0  0  0  0  0  0  0  0  0  0  0
    0.8503    0.5002    0.0000 C   0  0  0  0  0  0  0  0  0  0  0  0
    5.1519    1.9507    0.0000 C   0  0  0  0  0  0  0  0  0  0  0  0
  1  2  1  0  0  0  0 
  3  1  1  0  0  0  0 
  1  4  1  0  0  0  0 
  2  5  1  0  0  0  0 
  2  6  2  0  0  0  0 
  7  3  1  0  0  0  0 
  4  8  1  0  0  0  0 
  5  9  2  0  0  0  0 
 10  7  1  0  0  0  0 
  7 11  1  0  0  0  0 
  8 10  1  0  0  0  0 
  8 12  1  0  0  0  0 
 11 13  1  0  0  0  0 
 11 14  2  0  0  0  0 
 12 15  2  0  0  0  0 
 12 16  1  0  0  0  0 
 13 17  2  0  0  0  0 
 16 18  2  0  0  0  0 
M  END
> <Name>
1,3,5-Triazine, hexahydro-1,3,5-tris(1-oxo-2-propenyl)-

> <Source>
NIST2DMolFile

> <Tox>
2.853

> <CAS>
959-52-4

$$$$

  CDK

 11 10  0  0  0  0  0  0  0  0999 V2000
    2.0676   -0.9573    0.0000 C   0  0  0  0  0  0  0  0  0  0  0  0
    1.2575   -1.1132    0.0000 C   0  0  0  0  0  0  0  0  0  0  0  0
    0.4473   -1.2692    0.0000 C   0  0  0  0  0  0  0  0  0  0  0  0
   -0.3628   -1.4251    0.0000 S   0  0  0  0  0  0  0  0  0  0  0  0
   -0.9029   -0.8014    0.0000 P   0  0  0  0  0  0  0  0  0  0  0  0
   -1.5265   -1.3415    0.0000 S   0  0  0  0  0  0  0  0  0  0  0  0
   -0.2793   -0.2613    0.0000 C   0  0  0  0  0  0  0  0  0  0  0  0
   -1.4430   -0.1778    0.0000 S   0  0  0  0  0  0  0  0  0  0  0  0
   -1.1729    0.6018    0.0000 C   0  0  0  0  0  0  0  0  0  0  0  0
   -0.9029    1.3813    0.0000 C   0  0  0  0  0  0  0  0  0  0  0  0
   -0.6329    2.1609    0.0000 C   0  0  0  0  0  0  0  0  0  0  0  0
  1  2  1  0  0  0  0 
  2  3  1  0  0  0  0 
  3  4  1  0  0  0  0 
  4  5  1  0  0  0  0 
  5  6  2  0  0  0  0 
  5  7  1  0  0  0  0 
  5  8  1  0  0  0  0 
  8  9  1  0  0  0  0 
  9 10  1  0  0  0  0 
 10 11  1  0  0  0  0 
M  END
> <Name>
Phosphonotrithioic acid, methyl-, dipropyl ester

> <Source>
Smiles

> <Tox>
4.103

> <CAS>
996-05-4

$$$$

  CDK

  9  8  0  0  0  0  0  0  0  0999 V2000
    2.6513   -0.0000    0.0000 N   0  0  0  0  0  0  0  0  0  0  0  0
    0.9803   -0.9803    0.0000 Si  0  0  0  0  0  0  0  0  0  0  0  0
    4.0988   -1.2596    0.0000 Si  0  0  0  0  0  0  0  0  0  0  0  0
    0.4114   -0.0000    0.0000 C   0  0  0  0  0  0  0  0  0  0  0  0
    1.5440   -1.9555    0.0000 C   0  0  0  0  0  0  0  0  0  0  0  0
    0.0000   -1.5440    0.0000 C   0  0  0  0  0  0  0  0  0  0  0  0
    4.6677   -0.2844    0.0000 C   0  0  0  0  0  0  0  0  0  0  0  0
    5.0791   -1.8285    0.0000 C   0  0  0  0  0  0  0  0  0  0  0  0
    3.5351   -2.2399    0.0000 C   0  0  0  0  0  0  0  0  0  0  0  0
  1  2  1  0  0  0  0 
  1  3  1  0  0  0  0 
  2  4  1  0  0  0  0 
  2  5  1  0  0  0  0 
  2  6  1  0  0  0  0 
  3  7  1  0  0  0  0 
  3  8  1  0  0  0  0 
  3  9  1  0  0  0  0 
M  END
> <Name>
Silanamine, 1,1,1-trimethyl-N-(trimethylsilyl)-

> <Source>
DSSTox2DMolFile

> <Tox>
2.278

> <CAS>
999-97-3

$$$$

  CDK

 14 14  0  0  0  0  0  0  0  0999 V2000
    0.9986    0.8988    0.0000 C   0  0  0  0  0  0  0  0  0  0  0  0
    1.4979    1.7476    0.0000 N   0  0  0  0  0  0  0  0  0  0  0  0
    1.4979    0.0000    0.0000 C   0  0  0  0  0  0  0  0  0  0  0  0
    0.0000    0.8988    0.0000 C   0  0  0  0  0  0  0  0  0  0  0  0
    2.4965    1.7476    0.0000 C   0  0  0  0  0  0  0  0  0  0  0  0
    2.9958    2.5964    0.0000 N   0  0  0  0  0  0  0  0  0  0  0  0
    2.9958    0.8988    0.0000 N   0  0  0  0  0  0  0  0  0  0  0  0
    3.9944    2.5964    0.0000 C   0  0  0  0  0  0  0  0  0  0  0  0
    3.9944    0.8988    0.0000 C   0  0  0  0  0  0  0  0  0  0  0  0
    4.4938    3.4951    0.0000 N   0  0  0  0  0  0  0  0  0  0  0  0
    4.4938    1.7476    0.0000 N   0  0  0  0  0  0  0  0  0  0  0  0
    4.4938    0.0000    0.0000 S   0  0  0  0  0  0  0  0  0  0  0  0
    5.4924    3.4951    0.0000 C   0  0  0  0  0  0  0  0  0  0  0  0
    5.4924    0.0000    0.0000 C   0  0  0  0  0  0  0  0  0  0  0  0
  1  2  1  0  0  0  0 
  1  3  1  0  0  0  0 
  1  4  1  0  0  0  0 
  2  5  1  0  0  0  0 
  6  5  2  0  0  0  0 
  5  7  1  0  0  0  0 
  8  6  1  0  0  0  0 
  7  9  2  0  0  0  0 
  8 10  1  0  0  0  0 
 11  8  2  0  0  0  0 
  9 11  1  0  0  0  0 
  9 12  1  0  0  0  0 
 10 13  1  0  0  0  0 
 12 14  1  0  0  0  0 
M  END
> <Name>
1,3,5-Triazine-2,4-diamine, N-methyl-N'-(1-methylethyl)-6-(methylthio)- (9CI)

> <Source>
NIST2DMolFile

> <Tox>
2.186

> <CAS>
1014-69-3

$$$$

  CDK

 13 12  0  0  0  0  0  0  0  0999 V2000
   -0.6029    0.2226    0.0000 Si  0  0  0  0  0  0  0  0  0  0  0  0
   -1.4405    0.4013    0.0000 O   0  0  0  0  0  0  0  0  0  0  0  0
   -0.4799    1.0726    0.0000 O   0  0  0  0  0  0  0  0  0  0  0  0
   -0.6123   -0.6327    0.0000 C   0  0  0  0  0  0  0  0  0  0  0  0
    0.1698   -0.1585    0.0000 C   0  0  0  0  0  0  0  0  0  0  0  0
   -2.1135   -0.1238    0.0000 C   0  0  0  0  0  0  0  0  0  0  0  0
    0.3162    1.3976    0.0000 C   0  0  0  0  0  0  0  0  0  0  0  0
    0.9977   -0.3542    0.0000 C   0  0  0  0  0  0  0  0  0  0  0  0
   -2.6266   -0.8060    0.0000 C   0  0  0  0  0  0  0  0  0  0  0  0
    1.1503    1.5973    0.0000 C   0  0  0  0  0  0  0  0  0  0  0  0
    1.8225   -0.4690    0.0000 C   0  0  0  0  0  0  0  0  0  0  0  0
    2.6258   -0.6448    0.0000 C   0  0  0  0  0  0  0  0  0  0  0  0
    3.4286   -0.8060    0.0000 N   0  0  0  0  0  0  0  0  0  0  0  0
  1  2  1  0  0  0  0 
  1  3  1  0  0  0  0 
  1  4  1  0  0  0  0 
  1  5  1  0  0  0  0 
  2  6  1  0  0  0  0 
  3  7  1  0  0  0  0 
  5  8  1  0  0  0  0 
  6  9  1  0  0  0  0 
  7 10  1  0  0  0  0 
  8 11  1  0  0  0  0 
 11 12  1  0  0  0  0 
 12 13  3  0  0  0  0 
M  END
> <Name>
Silane, (3-cyanopropyl)diethoxy(methyl)-

> <Source>
Smiles

> <Tox>
1.732

> <CAS>
1067-99-8

$$$$

  CDK

 11 11  0  0  0  0  0  0  0  0999 V2000
    0.0000    0.4488    0.0000 C   0  0  0  0  0  0  0  0  0  0  0  0
    0.0000    1.4960    0.0000 C   0  0  0  0  0  0  0  0  0  0  0  0
    0.8976    0.0000    0.0000 C   0  0  0  0  0  0  0  0  0  0  0  0
    0.8976    1.9448    0.0000 C   0  0  0  0  0  0  0  0  0  0  0  0
    1.7454    0.4488    0.0000 C   0  0  0  0  0  0  0  0  0  0  0  0
    1.7454    1.4960    0.0000 C   0  0  0  0  0  0  0  0  0  0  0  0
    2.5931    1.9448    0.0000 N   0  0  0  0  0  0  0  0  0  0  0  0
    3.4907    1.4462    0.0000 C   0  0  0  0  0  0  0  0  0  0  0  0
    4.3385    1.9448    0.0000 C   0  0  0  0  0  0  0  0  0  0  0  0
    5.1862    1.4462    0.0000 C   0  0  0  0  0  0  0  0  0  0  0  0
    6.0838    0.9475    0.0000 N   0  0  0  0  0  0  0  0  0  0  0  0
  1  2  2  0  0  0  0 
  3  1  1  0  0  0  0 
  2  4  1  0  0  0  0 
  5  3  2  0  0  0  0 
  4  6  2  0  0  0  0 
  6  5  1  0  0  0  0 
  6  7  1  0  0  0  0 
  8  7  1  0  0  0  0 
  9  8  1  0  0  0  0 
 10  9  1  0  0  0  0 
 10 11  3  0  0  0  0 
M  END
> <Name>
Propanenitrile, 3-(phenylamino)-

> <Source>
NIST2DMolFile

> <Tox>
1.493

> <CAS>
1075-76-9

$$$$

  CDK

 14 15  0  0  0  0  0  0  0  0999 V2000
    0.9989    1.8646    0.0000 C   0  0  0  0  0  0  0  0  0  0  0  0
    1.8640    2.3697    0.0000 C   0  0  0  0  0  0  0  0  0  0  0  0
    0.9989    0.8603    0.0000 C   0  0  0  0  0  0  0  0  0  0  0  0
    1.8590    1.3652    0.0000 C   0  0  0  0  0  0  0  0  0  0  0  0
    2.7346    1.8646    0.0000 C   0  0  0  0  0  0  0  0  0  0  0  0
    1.8590    3.3686    0.0000 C   0  0  0  0  0  0  0  0  0  0  0  0
    1.8640    0.3608    0.0000 C   0  0  0  0  0  0  0  0  0  0  0  0
    0.0000    0.8603    0.0000 C   0  0  0  0  0  0  0  0  0  0  0  0
    0.4939    0.0000    0.0000 C   0  0  0  0  0  0  0  0  0  0  0  0
    2.7346    0.8603    0.0000 C   0  0  0  0  0  0  0  0  0  0  0  0
    2.7193    3.8737    0.0000 O   0  0  0  0  0  0  0  0  0  0  0  0
    3.5794    3.3797    0.0000 C   0  0  0  0  0  0  0  0  0  0  0  0
    3.5794    2.3807    0.0000 O   0  0  0  0  0  0  0  0  0  0  0  0
    4.4397    3.8847    0.0000 C   0  0  0  0  0  0  0  0  0  0  0  0
  1  2  1  0  0  0  0 
  3  1  1  0  0  0  0 
  1  4  1  0  0  0  0 
  2  5  2  0  0  0  0 
  2  6  1  0  0  0  0 
  7  3  1  0  0  0  0 
  3  8  1  0  0  0  0 
  3  9  1  0  0  0  0 
  4  7  1  0  0  0  0 
  5 10  1  0  0  0  0 
  6 11  1  0  0  0  0 
 10  7  1  0  0  0  0 
 11 12  1  0  0  0  0 
 12 13  2  0  0  0  0 
 12 14  1  0  0  0  0 
M  END
> <Name>
Bicyclo(3.1.1)hept-2-ene-2-methanol, 6,6-dimethyl-, acetate, (1S,5R)-

> <Source>
NIST2DMolFile

> <Tox>
1.873

> <CAS>
1079-01-2

$$$$

  CDK

 14 15  0  0  0  0  0  0  0  0999 V2000
    1.5095    3.2706    0.0000 C   0  0  0  0  0  0  0  0  0  0  0  0
    2.0127    2.4152    0.0000 O   0  0  0  0  0  0  0  0  0  0  0  0
    0.5032    3.2706    0.0000 N   0  0  0  0  0  0  0  0  0  0  0  0
    2.0127    4.1260    0.0000 O   0  0  0  0  0  0  0  0  0  0  0  0
    3.0190    2.4152    0.0000 C   0  0  0  0  0  0  0  0  0  0  0  0
    0.0000    4.1260    0.0000 C   0  0  0  0  0  0  0  0  0  0  0  0
    3.5222    1.5095    0.0000 C   0  0  0  0  0  0  0  0  0  0  0  0
    3.5222    3.2706    0.0000 C   0  0  0  0  0  0  0  0  0  0  0  0
    4.5285    1.5095    0.0000 C   0  0  0  0  0  0  0  0  0  0  0  0
    3.2203    0.6038    0.0000 C   0  0  0  0  0  0  0  0  0  0  0  0
    4.5285    3.2706    0.0000 C   0  0  0  0  0  0  0  0  0  0  0  0
    5.0316    2.4152    0.0000 C   0  0  0  0  0  0  0  0  0  0  0  0
    4.8304    0.5535    0.0000 S   0  0  0  0  0  0  0  0  0  0  0  0
    4.0253    0.0000    0.0000 C   0  0  0  0  0  0  0  0  0  0  0  0
  1  2  1  0  0  0  0 
  1  3  1  0  0  0  0 
  1  4  2  0  0  0  0 
  2  5  1  0  0  0  0 
  3  6  1  0  0  0  0 
  5  7  2  0  0  0  0 
  8  5  1  0  0  0  0 
  9  7  1  0  0  0  0 
  7 10  1  0  0  0  0 
 11  8  2  0  0  0  0 
  9 12  2  0  0  0  0 
 13  9  1  0  0  0  0 
 10 14  2  0  0  0  0 
 12 11  1  0  0  0  0 
 14 13  1  0  0  0  0 
M  END
> <Name>
Carbamic acid, methyl-, benzo(b)thien-4-yl ester

> <Source>
NIST2DMolFile

> <Tox>
3.471

> <CAS>
1079-33-0

$$$$

  CDK

 17 19  0  0  0  0  0  0  0  0999 V2000
    0.2065   -2.9210   -0.3384 O   0  0  0  0  0  0  0  0  0  0  0  0
    0.5421   -2.4631   -1.4184 C   0  0  0  0  0  0  0  0  0  0  0  0
    0.7333   -3.0940   -2.6573 N   0  0  0  0  0  0  0  0  0  0  0  0
    0.9349   -1.0463   -1.6035 C   0  0  0  0  0  0  0  0  0  0  0  0
    1.1291   -2.1187   -3.5952 N   0  0  0  0  0  0  0  0  0  0  0  0
    0.8488   -4.4873   -2.8868 C   0  0  0  0  0  0  0  0  0  0  0  0
    1.2749   -0.9327   -2.8926 C   0  0  0  0  0  0  0  0  0  0  0  0
    0.9170    0.0399   -0.5978 C   0  0  0  0  0  0  0  0  0  0  0  0
    0.5107   -2.1299   -4.9161 C   0  0  0  0  0  0  0  0  0  0  0  0
    0.1937   -5.3986   -2.0500 C   0  0  0  0  0  0  0  0  0  0  0  0
    1.6193   -4.9675   -3.9523 C   0  0  0  0  0  0  0  0  0  0  0  0
    1.6940    0.3638   -3.5044 C   0  0  0  0  0  0  0  0  0  0  0  0
    1.0205    1.4132   -1.2787 C   0  0  0  0  0  0  0  0  0  0  0  0
    0.3076   -6.7704   -2.2758 C   0  0  0  0  0  0  0  0  0  0  0  0
    1.7330   -6.3392   -4.1782 C   0  0  0  0  0  0  0  0  0  0  0  0
    2.0340    1.4123   -2.4313 C   0  0  0  0  0  0  0  0  0  0  0  0
    1.0771   -7.2408   -3.3399 C   0  0  0  0  0  0  0  0  0  0  0  0
  1  2  2  0  0  0  0 
  3  2  1  0  0  0  0 
  4  2  1  0  0  0  0 
  5  3  1  0  0  0  0 
  3  6  1  0  0  0  0 
  7  4  2  0  0  0  0 
  4  8  1  0  0  0  0 
  5  7  1  0  0  0  0 
  5  9  1  0  0  0  0 
  6 10  2  0  0  0  0 
  6 11  1  0  0  0  0 
  7 12  1  0  0  0  0 
  8 13  1  0  0  0  0 
 10 14  1  0  0  0  0 
 11 15  2  0  0  0  0 
 12 16  1  0  0  0  0 
 16 13  1  0  0  0  0 
 14 17  2  0  0  0  0 
 15 17  1  0  0  0  0 
M  END
> <Name>
3-Indazolinone, 4,5,6,7-tetrahydro-1-methyl-2-phenyl-

> <Source>
Chemidplus3DMolFile

> <Tox>
2.182

> <CAS>
1084-23-7

$$$$

  CDK

 18 18  0  0  0  0  0  0  0  0999 V2000
    3.4706    3.5209    0.0000 S   0  0  0  0  0  0  0  0  0  0  0  0
    2.6156    3.0179    0.0000 N   0  0  0  0  0  0  0  0  0  0  0  0
    4.3760    4.0239    0.0000 N   0  0  0  0  0  0  0  0  0  0  0  0
    2.9676    4.3760    0.0000 O   0  0  0  0  0  0  0  0  0  0  0  0
    3.9736    2.6659    0.0000 O   0  0  0  0  0  0  0  0  0  0  0  0
    1.7605    3.5209    0.0000 S   0  0  0  0  0  0  0  0  0  0  0  0
    2.6156    2.0120    0.0000 C   0  0  0  0  0  0  0  0  0  0  0  0
    5.2311    3.5209    0.0000 C   0  0  0  0  0  0  0  0  0  0  0  0
    4.3760    5.0299    0.0000 C   0  0  0  0  0  0  0  0  0  0  0  0
    0.8551    3.0179    0.0000 C   0  0  0  0  0  0  0  0  0  0  0  0
    1.7605    1.5090    0.0000 C   0  0  0  0  0  0  0  0  0  0  0  0
    3.4706    1.5090    0.0000 C   0  0  0  0  0  0  0  0  0  0  0  0
    1.3581    2.1629    0.0000 Cl  0  0  0  0  0  0  0  0  0  0  0  0
    0.3521    3.8730    0.0000 Cl  0  0  0  0  0  0  0  0  0  0  0  0
    0.0000    2.5150    0.0000 F   0  0  0  0  0  0  0  0  0  0  0  0
    1.7605    0.5030    0.0000 C   0  0  0  0  0  0  0  0  0  0  0  0
    3.4706    0.5030    0.0000 C   0  0  0  0  0  0  0  0  0  0  0  0
    2.6156    0.0000    0.0000 C   0  0  0  0  0  0  0  0  0  0  0  0
  1  2  1  0  0  0  0 
  1  3  1  0  0  0  0 
  1  4  2  0  0  0  0 
  1  5  2  0  0  0  0 
  2  6  1  0  0  0  0 
  2  7  1  0  0  0  0 
  3  8  1  0  0  0  0 
  3  9  1  0  0  0  0 
  6 10  1  0  0  0  0 
 11  7  2  0  0  0  0 
  7 12  1  0  0  0  0 
 10 13  1  0  0  0  0 
 10 14  1  0  0  0  0 
 10 15  1  0  0  0  0 
 16 11  1  0  0  0  0 
 12 17  2  0  0  0  0 
 18 16  2  0  0  0  0 
 17 18  1  0  0  0  0 
M  END
> <Name>
Methanesulfenamide, 1,1-dichloro-N-((dimethylamino)sulfonyl)-1-fluoro-N-phenyl-

> <Source>
NIST2DMolFile

> <Tox>
2.824

> <CAS>
1085-98-9

$$$$

  CDK

 12 11  0  0  0  0  0  0  0  0999 V2000
    1.5495    0.0510    0.4475 P   0  0  0  0  0  0  0  0  0  0  0  0
    2.0033    0.7854   -1.0206 O   0  0  0  0  0  0  0  0  0  0  0  0
    2.5885    0.0062    1.4630 O   0  0  0  0  0  0  0  0  0  0  0  0
    1.0073   -1.4694   -0.0894 O   0  0  0  0  0  0  0  0  0  0  0  0
   -0.2797    1.0729    0.9526 S   0  0  0  0  0  0  0  0  0  0  0  0
    3.3221    0.7129   -1.4526 C   0  0  0  0  0  0  0  0  0  0  0  0
    1.8959   -2.5353   -0.1620 C   0  0  0  0  0  0  0  0  0  0  0  0
   -1.4002    1.3210   -0.4713 C   0  0  0  0  0  0  0  0  0  0  0  0
   -2.5042    0.2859   -0.6137 C   0  0  0  0  0  0  0  0  0  0  0  0
   -2.7628   -0.2523   -1.6820 O   0  0  0  0  0  0  0  0  0  0  0  0
   -3.3206    0.0402    0.5110 N   0  0  0  0  0  0  0  0  0  0  0  0
   -4.2982   -1.0554    0.5215 C   0  0  0  0  0  0  0  0  0  0  0  0
  1  2  1  0  0  0  0 
  1  3  2  0  0  0  0 
  1  4  1  0  0  0  0 
  1  5  1  0  0  0  0 
  2  6  1  0  0  0  0 
  4  7  1  0  0  0  0 
  5  8  1  0  0  0  0 
  8  9  1  0  0  0  0 
  9 10  2  0  0  0  0 
  9 11  1  0  0  0  0 
 11 12  1  0  0  0  0 
M  END
> <Name>
Phosphorothioic acid, O,O-dimethyl ester, S-ester with 2-mercapto-N-methylacetamide

> <Source>
DougDB3DMolFile

> <Tox>
3.852

> <CAS>
1113-02-6

$$$$

  CDK

 10  9  0  0  0  0  0  0  0  0999 V2000
    0.8905    0.4806    0.0073 C   0  0  0  0  0  0  0  0  0  0  0  0
   -0.3945   -0.2291    0.0571 C   0  0  0  0  0  0  0  0  0  0  0  0
    1.0919    1.6832   -0.0359 O   0  0  0  0  0  0  0  0  0  0  0  0
    1.9569   -0.3750    0.0071 O   0  0  0  0  0  0  0  0  0  0  0  0
   -1.5578    0.4508    0.0983 C   0  0  0  0  0  0  0  0  0  0  0  0
    3.2710    0.1817   -0.0360 C   0  0  0  0  0  0  0  0  0  0  0  0
   -2.8206   -0.1759    0.2562 N   0  0  0  0  0  0  0  0  0  0  0  0
    4.2359   -0.9888   -0.0195 C   0  0  0  0  0  0  0  0  0  0  0  0
   -3.9890    0.6316   -0.1606 C   0  0  0  0  0  0  0  0  0  0  0  0
   -2.9381   -1.6071   -0.0981 C   0  0  0  0  0  0  0  0  0  0  0  0
  1  2  1  0  0  0  0 
  1  3  2  0  0  0  0 
  1  4  1  0  0  0  0 
  2  5  2  0  0  0  0 
  4  6  1  0  0  0  0 
  5  7  1  0  0  0  0 
  6  8  1  0  0  0  0 
  7  9  1  0  0  0  0 
  7 10  1  0  0  0  0 
M  END
> <Name>
Acrylic acid, 3-(dimethylamino)-, ethyl ester, (E)-

> <Source>
DougDB3DMolFile

> <Tox>
1.503

> <CAS>
1117-37-9

$$$$

  CDK

 12 11  0  0  0  0  0  0  0  0999 V2000
    5.2944    0.0456   -0.0026 C   0  0  0  0  0  0  0  0  0  0  0  0
    3.9803   -0.6888    0.0037 C   0  0  0  0  0  0  0  0  0  0  0  0
    5.5310    1.2400   -0.0067 O   0  0  0  0  0  0  0  0  0  0  0  0
    6.3856   -0.7602   -0.0038 O   0  0  0  0  0  0  0  0  0  0  0  0
    2.7864    0.2515    0.0021 C   0  0  0  0  0  0  0  0  0  0  0  0
    1.4826   -0.5310    0.0046 C   0  0  0  0  0  0  0  0  0  0  0  0
    0.2833    0.4031    0.0048 C   0  0  0  0  0  0  0  0  0  0  0  0
   -1.0220   -0.3761    0.0037 C   0  0  0  0  0  0  0  0  0  0  0  0
   -2.2211    0.5582    0.0055 C   0  0  0  0  0  0  0  0  0  0  0  0
   -3.5254   -0.2226    0.0008 C   0  0  0  0  0  0  0  0  0  0  0  0
   -4.7157    0.7088    0.0041 C   0  0  0  0  0  0  0  0  0  0  0  0
   -6.2048   -0.2653   -0.0061 Cl  0  0  0  0  0  0  0  0  0  0  0  0
  1  2  1  0  0  0  0 
  1  3  2  0  0  0  0 
  1  4  1  0  0  0  0 
  2  5  1  0  0  0  0 
  5  6  1  0  0  0  0 
  6  7  1  0  0  0  0 
  7  8  1  0  0  0  0 
  8  9  1  0  0  0  0 
  9 10  1  0  0  0  0 
 10 11  1  0  0  0  0 
 11 12  1  0  0  0  0 
M  END
> <Name>
Nonanoic acid, 9-chloro-

> <Source>
DougDB3DMolFile

> <Tox>
1.808

> <CAS>
1120-10-1

$$$$

  CDK

  9  9  0  0  0  0  0  0  0  0999 V2000
   -1.8874   -1.1665   -0.0303 C   0  0  0  0  0  0  0  0  0  0  0  0
   -0.4986   -1.2046    0.0462 C   0  0  0  0  0  0  0  0  0  0  0  0
   -2.5725   -0.0001   -0.0694 N   0  0  0  0  0  0  0  0  0  0  0  0
    0.2229    0.0000    0.0850 C   0  0  0  0  0  0  0  0  0  0  0  0
   -1.8877    1.1664   -0.0295 C   0  0  0  0  0  0  0  0  0  0  0  0
   -0.4989    1.2045    0.0470 C   0  0  0  0  0  0  0  0  0  0  0  0
    1.6494    0.0002    0.2745 N   0  0  0  0  0  0  0  0  0  0  0  0
    2.3738    1.2274   -0.1271 C   0  0  0  0  0  0  0  0  0  0  0  0
    2.3739   -1.2274   -0.1256 C   0  0  0  0  0  0  0  0  0  0  0  0
  1  2  1  0  0  0  0 
  1  3  2  0  0  0  0 
  2  4  2  0  0  0  0 
  5  3  1  0  0  0  0 
  4  6  1  0  0  0  0 
  4  7  1  0  0  0  0 
  6  5  2  0  0  0  0 
  7  8  1  0  0  0  0 
  7  9  1  0  0  0  0 
M  END
> <Name>
4-Pyridinamine, N,N-dimethyl-

> <Source>
DougDB3DMolFile

> <Tox>
2.689

> <CAS>
1122-58-3

$$$$

  CDK

 18 19  0  0  0  0  0  0  0  0999 V2000
   -0.6242    0.6510   -1.1034 C   0  0  0  0  0  0  0  0  0  0  0  0
   -0.7945    0.7986   -2.2977 O   0  0  0  0  0  0  0  0  0  0  0  0
    0.7463    0.6299   -0.5492 C   0  0  0  0  0  0  0  0  0  0  0  0
   -1.7867    0.4989   -0.2048 C   0  0  0  0  0  0  0  0  0  0  0  0
    1.3378   -0.5899   -0.1684 C   0  0  0  0  0  0  0  0  0  0  0  0
    1.4626    1.8161   -0.4057 C   0  0  0  0  0  0  0  0  0  0  0  0
   -3.0762    0.4101   -0.7345 C   0  0  0  0  0  0  0  0  0  0  0  0
   -1.6011    0.4372    1.1787 C   0  0  0  0  0  0  0  0  0  0  0  0
    0.5926   -1.8574   -0.3209 C   0  0  0  0  0  0  0  0  0  0  0  0
    2.6292   -0.5948    0.3521 C   0  0  0  0  0  0  0  0  0  0  0  0
    2.7433    1.7912    0.1129 C   0  0  0  0  0  0  0  0  0  0  0  0
   -4.1570    0.2676    0.1105 C   0  0  0  0  0  0  0  0  0  0  0  0
   -2.6908    0.2947    2.0115 C   0  0  0  0  0  0  0  0  0  0  0  0
   -0.4911   -1.8625   -0.8692 O   0  0  0  0  0  0  0  0  0  0  0  0
    1.1155   -3.0068    0.1485 O   0  0  0  0  0  0  0  0  0  0  0  0
    3.3224    0.5929    0.4924 C   0  0  0  0  0  0  0  0  0  0  0  0
   -3.9662    0.2126    1.4799 C   0  0  0  0  0  0  0  0  0  0  0  0
    4.7199    0.5822    1.0563 C   0  0  0  0  0  0  0  0  0  0  0  0
  1  2  2  0  0  0  0 
  1  3  1  0  0  0  0 
  1  4  1  0  0  0  0 
  3  5  2  0  0  0  0 
  3  6  1  0  0  0  0 
  4  7  2  0  0  0  0 
  4  8  1  0  0  0  0 
  5  9  1  0  0  0  0 
  5 10  1  0  0  0  0 
  6 11  2  0  0  0  0 
  7 12  1  0  0  0  0 
  8 13  2  0  0  0  0 
  9 14  2  0  0  0  0 
  9 15  1  0  0  0  0 
 10 16  2  0  0  0  0 
 11 16  1  0  0  0  0 
 12 17  2  0  0  0  0 
 13 17  1  0  0  0  0 
 16 18  1  0  0  0  0 
M  END
> <Name>
Benzoic acid, 6-benzoyl-3-methyl- (9CI)

> <Source>
NIH3DMolFile

> <Tox>
1.632

> <CAS>
1147-41-7

$$$$

  CDK

 29 30  0  0  0  0  0  0  0  0999 V2000
    1.3411   -2.8028    0.0000 C   0  0  0  0  0  0  0  0  0  0  0  0
    0.5307   -3.0003    0.0000 O   0  0  0  0  0  0  0  0  0  0  0  0
   -0.0399   -3.5999    0.0000 P   0  0  0  0  0  0  0  0  0  0  0  0
   -0.6345   -4.1748    0.0000 S   0  0  0  0  0  0  0  0  0  0  0  0
    0.6188   -4.0917    0.0000 O   0  0  0  0  0  0  0  0  0  0  0  0
   -0.6897   -3.0947    0.0000 O   0  0  0  0  0  0  0  0  0  0  0  0
    0.7716   -4.9050    0.0000 C   0  0  0  0  0  0  0  0  0  0  0  0
   -0.7454   -2.2839    0.0000 C   0  0  0  0  0  0  0  0  0  0  0  0
   -0.0357   -1.8752    0.0000 C   0  0  0  0  0  0  0  0  0  0  0  0
   -1.4592   -1.8640    0.0000 C   0  0  0  0  0  0  0  0  0  0  0  0
   -0.0333   -1.0515    0.0000 C   0  0  0  0  0  0  0  0  0  0  0  0
   -1.4610   -1.0385    0.0000 C   0  0  0  0  0  0  0  0  0  0  0  0
   -0.7452   -0.6440    0.0000 C   0  0  0  0  0  0  0  0  0  0  0  0
   -0.7018    0.1561    0.0000 S   0  0  0  0  0  0  0  0  0  0  0  0
   -1.5290    0.1741    0.0000 O   0  0  0  0  0  0  0  0  0  0  0  0
    0.1225    0.1492    0.0000 O   0  0  0  0  0  0  0  0  0  0  0  0
   -0.7951    0.9528    0.0000 C   0  0  0  0  0  0  0  0  0  0  0  0
   -0.0520    1.2980    0.0000 C   0  0  0  0  0  0  0  0  0  0  0  0
   -1.4758    1.4032    0.0000 C   0  0  0  0  0  0  0  0  0  0  0  0
    0.0130    2.1005    0.0000 C   0  0  0  0  0  0  0  0  0  0  0  0
   -1.4091    2.2244    0.0000 C   0  0  0  0  0  0  0  0  0  0  0  0
   -0.6691    2.5966    0.0000 C   0  0  0  0  0  0  0  0  0  0  0  0
   -0.8306    3.4346    0.0000 O   0  0  0  0  0  0  0  0  0  0  0  0
   -0.2499    4.0840    0.0000 P   0  0  0  0  0  0  0  0  0  0  0  0
   -0.5529    4.8611    0.0000 S   0  0  0  0  0  0  0  0  0  0  0  0
    0.3521    3.5162    0.0000 O   0  0  0  0  0  0  0  0  0  0  0  0
    0.6033    4.2003    0.0000 O   0  0  0  0  0  0  0  0  0  0  0  0
    0.0058    2.7711    0.0000 C   0  0  0  0  0  0  0  0  0  0  0  0
    1.4259    3.9995    0.0000 C   0  0  0  0  0  0  0  0  0  0  0  0
  1  2  1  0  0  0  0 
  2  3  1  0  0  0  0 
  3  4  2  0  0  0  0 
  3  5  1  0  0  0  0 
  3  6  1  0  0  0  0 
  5  7  1  0  0  0  0 
  6  8  1  0  0  0  0 
  8  9  1  0  0  0  0 
  8 10  2  0  0  0  0 
  9 11  2  0  0  0  0 
 12 10  1  0  0  0  0 
 11 13  1  0  0  0  0 
 13 12  2  0  0  0  0 
 13 14  1  0  0  0  0 
 14 15  2  0  0  0  0 
 14 16  2  0  0  0  0 
 14 17  1  0  0  0  0 
 17 18  1  0  0  0  0 
 17 19  2  0  0  0  0 
 18 20  2  0  0  0  0 
 21 19  1  0  0  0  0 
 20 22  1  0  0  0  0 
 22 21  2  0  0  0  0 
 22 23  1  0  0  0  0 
 23 24  1  0  0  0  0 
 24 25  2  0  0  0  0 
 24 26  1  0  0  0  0 
 24 27  1  0  0  0  0 
 26 28  1  0  0  0  0 
 27 29  1  0  0  0  0 
M  END
> <Name>
Phosphorothioic acid, O,O'-(sulfonyldi-1,4-phenylene) O,O,O',O'-tetramethyl ester

> <Source>
Smiles

> <Tox>
2.397

> <CAS>
1174-83-0

$$$$

  CDK

  9  8  0  0  0  0  0  0  0  0999 V2000
    0.7493   -0.9381    0.6196 C   0  0  0  0  0  0  0  0  0  0  0  0
   -0.7573   -0.8348    0.5165 C   0  0  0  0  0  0  0  0  0  0  0  0
    1.3658   -1.7494    1.2791 O   0  0  0  0  0  0  0  0  0  0  0  0
    1.3892    0.0098   -0.1100 O   0  0  0  0  0  0  0  0  0  0  0  0
   -1.2913   -1.5786   -0.5885 C   0  0  0  0  0  0  0  0  0  0  0  0
   -1.1561    1.0342    0.1430 Br  0  0  0  0  0  0  0  0  0  0  0  0
    2.8218   -0.0010   -0.1285 C   0  0  0  0  0  0  0  0  0  0  0  0
   -1.7329   -2.1779   -1.4770 N   0  0  0  0  0  0  0  0  0  0  0  0
    3.2427    1.1340   -1.0404 C   0  0  0  0  0  0  0  0  0  0  0  0
  1  2  1  0  0  0  0 
  1  3  2  0  0  0  0 
  1  4  1  0  0  0  0 
  2  5  1  0  0  0  0 
  2  6  1  0  0  0  0 
  4  7  1  0  0  0  0 
  5  8  3  0  0  0  0 
  7  9  1  0  0  0  0 
M  END
> <Name>
Acetic acid, bromocyano-, ethyl ester (8CI)(9CI)

> <Source>
DougDB3DMolFile

> <Tox>
2.660

> <CAS>
1187-46-8

$$$$

  CDK

  9  9  0  0  0  0  0  0  0  0999 V2000
    0.3181    0.0047   -0.7655 C   0  0  0  0  0  0  0  0  0  0  0  0
   -0.5779    1.2445   -0.7310 C   0  0  0  0  0  0  0  0  0  0  0  0
   -0.5445   -1.2601   -0.7183 C   0  0  0  0  0  0  0  0  0  0  0  0
    1.3868    0.0016    0.3537 C   0  0  0  0  0  0  0  0  0  0  0  0
   -1.5641    1.2336    0.4260 C   0  0  0  0  0  0  0  0  0  0  0  0
   -1.5411   -1.2646    0.4297 C   0  0  0  0  0  0  0  0  0  0  0  0
    2.1409    1.1959    0.2196 O   0  0  0  0  0  0  0  0  0  0  0  0
    2.2978   -1.2236    0.2457 C   0  0  0  0  0  0  0  0  0  0  0  0
   -2.4171   -0.0236    0.4043 C   0  0  0  0  0  0  0  0  0  0  0  0
  1  2  1  0  0  0  0 
  1  3  1  0  0  0  0 
  1  4  1  0  0  0  0 
  2  5  1  0  0  0  0 
  6  3  1  0  0  0  0 
  4  7  1  0  0  0  0 
  4  8  1  0  0  0  0 
  5  9  1  0  0  0  0 
  9  6  1  0  0  0  0 
M  END
> <Name>
Cyclohexanemethanol, alpha-methyl-

> <Source>
DougDB3DMolFile

> <Tox>
1.786

> <CAS>
1193-81-3

$$$$

  CDK

 14 15  0  0  0  0  0  0  0  0999 V2000
    4.1852    0.5042    0.0000 C   0  0  0  0  0  0  0  0  0  0  0  0
    4.1852    1.5127    0.0000 C   0  0  0  0  0  0  0  0  0  0  0  0
    3.3280    0.0000    0.0000 C   0  0  0  0  0  0  0  0  0  0  0  0
    3.3280    1.9666    0.0000 C   0  0  0  0  0  0  0  0  0  0  0  0
    2.4708    0.5042    0.0000 C   0  0  0  0  0  0  0  0  0  0  0  0
    2.4708    1.5127    0.0000 C   0  0  0  0  0  0  0  0  0  0  0  0
    3.3280    2.9750    0.0000 Cl  0  0  0  0  0  0  0  0  0  0  0  0
    1.6136    1.9666    0.0000 N   0  0  0  0  0  0  0  0  0  0  0  0
    0.7059    1.5632    0.0000 C   0  0  0  0  0  0  0  0  0  0  0  0
    1.4623    3.0255    0.0000 C   0  0  0  0  0  0  0  0  0  0  0  0
    0.0000    2.3195    0.0000 C   0  0  0  0  0  0  0  0  0  0  0  0
    0.5042    0.6051    0.0000 O   0  0  0  0  0  0  0  0  0  0  0  0
    0.5042    3.1767    0.0000 C   0  0  0  0  0  0  0  0  0  0  0  0
    2.2187    3.7314    0.0000 O   0  0  0  0  0  0  0  0  0  0  0  0
  2  1  2  0  0  0  0 
  1  3  1  0  0  0  0 
  4  2  1  0  0  0  0 
  3  5  2  0  0  0  0 
  6  4  2  0  0  0  0 
  4  7  1  0  0  0  0 
  5  6  1  0  0  0  0 
  6  8  1  0  0  0  0 
  8  9  1  0  0  0  0 
 10  8  1  0  0  0  0 
  9 11  1  0  0  0  0 
  9 12  2  0  0  0  0 
 13 10  1  0  0  0  0 
 10 14  2  0  0  0  0 
 11 13  2  0  0  0  0 
M  END
> <Name>
1H-Pyrrole-2,5-dione, 1-(2-chlorophenyl)-

> <Source>
NIST2DMolFile

> <Tox>
2.601

> <CAS>
1203-24-3

$$$$

  CDK

 19 20  0  0  0  0  0  0  0  0999 V2000
    6.2083    3.0533    0.0000 C   0  0  0  0  0  0  0  0  0  0  0  0
    5.3432    2.5444    0.0000 C   0  0  0  0  0  0  0  0  0  0  0  0
    7.0225    2.4935    0.0000 C   0  0  0  0  0  0  0  0  0  0  0  0
    5.3432    1.5775    0.0000 C   0  0  0  0  0  0  0  0  0  0  0  0
    4.4781    3.0533    0.0000 S   0  0  0  0  0  0  0  0  0  0  0  0
    7.0225    1.5266    0.0000 C   0  0  0  0  0  0  0  0  0  0  0  0
    6.1574    1.0686    0.0000 C   0  0  0  0  0  0  0  0  0  0  0  0
    3.5621    2.4935    0.0000 C   0  0  0  0  0  0  0  0  0  0  0  0
    7.8876    1.0178    0.0000 N   0  0  0  0  0  0  0  0  0  0  0  0
    3.5621    1.5775    0.0000 C   0  0  0  0  0  0  0  0  0  0  0  0
    2.6971    3.0533    0.0000 C   0  0  0  0  0  0  0  0  0  0  0  0
    7.8876    0.0000    0.0000 O   0  0  0  0  0  0  0  0  0  0  0  0
    8.7527    1.4757    0.0000 O   0  0  0  0  0  0  0  0  0  0  0  0
    2.6971    1.0686    0.0000 C   0  0  0  0  0  0  0  0  0  0  0  0
    1.7811    2.5444    0.0000 C   0  0  0  0  0  0  0  0  0  0  0  0
    1.7811    1.5775    0.0000 C   0  0  0  0  0  0  0  0  0  0  0  0
    0.9160    1.0686    0.0000 N   0  0  0  0  0  0  0  0  0  0  0  0
    0.0000    1.5266    0.0000 O   0  0  0  0  0  0  0  0  0  0  0  0
    0.9160    0.0509    0.0000 O   0  0  0  0  0  0  0  0  0  0  0  0
  2  1  2  0  0  0  0 
  1  3  1  0  0  0  0 
  4  2  1  0  0  0  0 
  2  5  1  0  0  0  0 
  3  6  2  0  0  0  0 
  7  4  2  0  0  0  0 
  5  8  1  0  0  0  0 
  6  7  1  0  0  0  0 
  6  9  1  0  0  0  0 
  8 10  2  0  0  0  0 
 11  8  1  0  0  0  0 
  9 12  2  0  0  0  0 
  9 13  2  0  0  0  0 
 10 14  1  0  0  0  0 
 15 11  2  0  0  0  0 
 14 16  2  0  0  0  0 
 16 15  1  0  0  0  0 
 16 17  1  0  0  0  0 
 17 18  2  0  0  0  0 
 17 19  2  0  0  0  0 
M  END
> <Name>
Benzene, 1,1'-thiobis(4-nitro-

> <Source>
NIST2DMolFile

> <Tox>
2.268

> <CAS>
1223-31-0

$$$$

  CDK

 23 23  0  0  0  0  0  0  0  0999 V2000
   -4.1244   -0.1989   -0.2760 C   0  0  0  0  0  0  0  0  0  0  0  0
   -3.9930   -1.4612    0.5499 C   0  0  0  0  0  0  0  0  0  0  0  0
   -4.4655   -0.0974   -1.4386 O   0  0  0  0  0  0  0  0  0  0  0  0
   -3.8420    0.9239    0.4496 O   0  0  0  0  0  0  0  0  0  0  0  0
   -3.3445   -2.6014   -0.2196 C   0  0  0  0  0  0  0  0  0  0  0  0
   -3.7887    2.1928   -0.1879 C   0  0  0  0  0  0  0  0  0  0  0  0
   -1.9363   -2.2865   -0.7112 C   0  0  0  0  0  0  0  0  0  0  0  0
   -2.4556    2.4544   -0.8834 C   0  0  0  0  0  0  0  0  0  0  0  0
   -1.1038   -2.1027    0.4353 O   0  0  0  0  0  0  0  0  0  0  0  0
   -1.2912    2.5250    0.0910 C   0  0  0  0  0  0  0  0  0  0  0  0
    0.2350   -1.9370    0.1430 C   0  0  0  0  0  0  0  0  0  0  0  0
   -0.0024    2.9103   -0.6160 C   0  0  0  0  0  0  0  0  0  0  0  0
    0.9468   -1.0455    0.9608 C   0  0  0  0  0  0  0  0  0  0  0  0
    0.8933   -2.6503   -0.8671 C   0  0  0  0  0  0  0  0  0  0  0  0
    1.1872    2.8457    0.3292 C   0  0  0  0  0  0  0  0  0  0  0  0
    2.3125   -0.8631    0.7592 C   0  0  0  0  0  0  0  0  0  0  0  0
    0.1717   -0.1780    2.1754 Cl  0  0  0  0  0  0  0  0  0  0  0  0
    2.2560   -2.4724   -1.0574 C   0  0  0  0  0  0  0  0  0  0  0  0
    2.5077    3.0964   -0.4007 C   0  0  0  0  0  0  0  0  0  0  0  0
    2.9550   -1.5786   -0.2471 C   0  0  0  0  0  0  0  0  0  0  0  0
    3.6535    3.1538    0.5960 C   0  0  0  0  0  0  0  0  0  0  0  0
    2.7667    2.0173   -1.4400 C   0  0  0  0  0  0  0  0  0  0  0  0
    4.6061   -1.3490   -0.4975 Cl  0  0  0  0  0  0  0  0  0  0  0  0
  1  2  1  0  0  0  0 
  1  3  2  0  0  0  0 
  1  4  1  0  0  0  0 
  2  5  1  0  0  0  0 
  4  6  1  0  0  0  0 
  5  7  1  0  0  0  0 
  6  8  1  0  0  0  0 
  7  9  1  0  0  0  0 
  8 10  1  0  0  0  0 
  9 11  1  0  0  0  0 
 10 12  1  0  0  0  0 
 11 13  1  0  0  0  0 
 11 14  2  0  0  0  0 
 12 15  1  0  0  0  0 
 13 16  2  0  0  0  0 
 13 17  1  0  0  0  0 
 18 14  1  0  0  0  0 
 15 19  1  0  0  0  0 
 16 20  1  0  0  0  0 
 20 18  2  0  0  0  0 
 19 21  1  0  0  0  0 
 19 22  1  0  0  0  0 
 20 23  1  0  0  0  0 
M  END
> <Name>
Butyric acid, 4-(2,4-dichlorophenoxy)-, isooctyl ester

> <Source>
DougDB3DMolFile

> <Tox>
2.859

> <CAS>
1320-15-6

$$$$

  CDK

 25 24  0  0  0  0  0  0  0  0999 V2000
   -4.4404   -0.4321    0.0000 C   0  0  0  0  0  0  0  0  0  0  0  0
   -3.7012   -0.1199    0.0000 C   0  0  0  0  0  0  0  0  0  0  0  0
   -2.9135    0.2127    0.0000 C   0  0  0  0  0  0  0  0  0  0  0  0
   -3.0316   -1.6283    0.0000 C   0  0  0  0  0  0  0  0  0  0  0  0
   -3.9089   -1.1032    0.0000 C   0  0  0  0  0  0  0  0  0  0  0  0
   -1.7144    1.6146    0.0000 C   0  0  0  0  0  0  0  0  0  0  0  0
   -3.1489   -0.7823    0.0000 C   0  0  0  0  0  0  0  0  0  0  0  0
   -2.0354    2.3746    0.0000 C   0  0  0  0  0  0  0  0  0  0  0  0
    0.2439    0.6505    0.0000 O   0  0  0  0  0  0  0  0  0  0  0  0
    0.6829    1.7315    0.0000 P   0  0  0  0  0  0  0  0  0  0  0  0
    1.2822    1.6568    0.0000 O   0  0  0  0  0  0  0  0  0  0  0  0
    0.2868    0.3409    0.0000 O   0  0  0  0  0  0  0  0  0  0  0  0
    1.7639    1.2924    0.0000 O   0  0  0  0  0  0  0  0  0  0  0  0
    0.6077   -0.4192    0.0000 C   0  0  0  0  0  0  0  0  0  0  0  0
    0.6077   -0.4192    0.0000 C   0  0  0  0  0  0  0  0  0  0  0  0
    0.9287   -1.1792    0.0000 C   0  0  0  0  0  0  0  0  0  0  0  0
    1.3404   -0.3176    0.0000 C   0  0  0  0  0  0  0  0  0  0  0  0
    1.2497   -1.9392    0.0000 C   0  0  0  0  0  0  0  0  0  0  0  0
    2.3198   -0.0239    0.0000 C   0  0  0  0  0  0  0  0  0  0  0  0
    1.9988    0.7361    0.0000 C   0  0  0  0  0  0  0  0  0  0  0  0
    1.5706   -2.6992    0.0000 O   0  0  0  0  0  0  0  0  0  0  0  0
    3.1384   -0.1260    0.0000 C   0  0  0  0  0  0  0  0  0  0  0  0
    2.4965    1.3940    0.0000 C   0  0  0  0  0  0  0  0  0  0  0  0
    3.9571   -0.2280    0.0000 C   0  0  0  0  0  0  0  0  0  0  0  0
    4.7758   -0.3301    0.0000 C   0  0  0  0  0  0  0  0  0  0  0  0
  1  2  1  0  0  0  0 
  2  3  1  0  0  0  0 
  3  4  1  0  0  0  0 
  4  5  1  0  0  0  0 
  5  6  1  0  0  0  0 
  5  7  1  0  0  0  0 
  6  8  1  0  0  0  0 
  7  9  1  0  0  0  0 
  9 10  1  0  0  0  0 
 10 11  2  0  0  0  0 
 10 12  1  0  0  0  0 
 10 13  1  0  0  0  0 
 12 14  1  0  0  0  0 
 13 15  1  0  0  0  0 
 14 16  1  0  0  0  0 
 15 17  1  0  0  0  0 
 16 18  1  0  0  0  0 
 17 19  1  0  0  0  0 
 17 20  1  0  0  0  0 
 18 21  1  0  0  0  0 
 19 22  1  0  0  0  0 
 20 23  1  0  0  0  0 
 22 24  1  0  0  0  0 
 24 25  1  0  0  0  0 
M  END
> <Name>
Phosphoric acid, di(2-ethylhexyl) hydroxypropyl ester

> <Source>
Smiles

> <Tox>
1.527

> <CAS>
1323-22-4

$$$$

  CDK

 28 28  0  0  0  0  0  0  0  0999 V2000
   14.3654   -8.5353    0.0000 C   0  0  0  0  0  0  0  0  0  0  0  0
   15.0650   -9.7479    0.0000 C   0  0  0  0  0  0  0  0  0  0  0  0
   12.9661   -8.5353    0.0000 C   0  0  0  0  0  0  0  0  0  0  0  0
   15.0650   -7.3226    0.0000 C   0  0  0  0  0  0  0  0  0  0  0  0
   16.4642   -9.7479    0.0000 C   0  0  0  0  0  0  0  0  0  0  0  0
   12.2665   -9.7479    0.0000 O   0  0  0  0  0  0  0  0  0  0  0  0
   12.2665   -7.3226    0.0000 O   0  0  0  0  0  0  0  0  0  0  0  0
   14.3654   -6.1099    0.0000 C   0  0  0  0  0  0  0  0  0  0  0  0
   16.4642   -7.3226    0.0000 C   0  0  0  0  0  0  0  0  0  0  0  0
   17.1638   -8.5353    0.0000 C   0  0  0  0  0  0  0  0  0  0  0  0
   10.8673   -9.7479    0.0000 C   0  0  0  0  0  0  0  0  0  0  0  0
   15.0650   -4.8973    0.0000 O   0  0  0  0  0  0  0  0  0  0  0  0
   12.9661   -6.1099    0.0000 O   0  0  0  0  0  0  0  0  0  0  0  0
   10.1677  -10.9606    0.0000 C   0  0  0  0  0  0  0  0  0  0  0  0
   12.2665   -4.8973    0.0000 C   0  0  0  0  0  0  0  0  0  0  0  0
   10.8673  -12.1732    0.0000 C   0  0  0  0  0  0  0  0  0  0  0  0
    8.7685  -10.9606    0.0000 C   0  0  0  0  0  0  0  0  0  0  0  0
   10.8673   -4.8973    0.0000 C   0  0  0  0  0  0  0  0  0  0  0  0
   12.2665  -12.1732    0.0000 C   0  0  0  0  0  0  0  0  0  0  0  0
    8.0689  -12.1732    0.0000 C   0  0  0  0  0  0  0  0  0  0  0  0
   10.1677   -6.1099    0.0000 C   0  0  0  0  0  0  0  0  0  0  0  0
   10.1677   -3.6846    0.0000 C   0  0  0  0  0  0  0  0  0  0  0  0
   12.9661  -13.3859    0.0000 C   0  0  0  0  0  0  0  0  0  0  0  0
   10.8673   -7.3226    0.0000 C   0  0  0  0  0  0  0  0  0  0  0  0
   10.8673   -2.4720    0.0000 C   0  0  0  0  0  0  0  0  0  0  0  0
   12.2665  -14.5986    0.0000 C   0  0  0  0  0  0  0  0  0  0  0  0
   10.1677   -8.5353    0.0000 C   0  0  0  0  0  0  0  0  0  0  0  0
    8.7685   -8.5353    0.0000 C   0  0  0  0  0  0  0  0  0  0  0  0
  1  2  1  0  0  0  0 
  1  3  1  0  0  0  0 
  1  4  2  0  0  0  0 
  2  5  1  0  0  0  0 
  3  6  1  0  0  0  0 
  3  7  2  0  0  0  0 
  4  8  1  0  0  0  0 
  4  9  1  0  0  0  0 
 10  5  1  0  0  0  0 
  6 11  1  0  0  0  0 
  8 12  2  0  0  0  0 
  8 13  1  0  0  0  0 
  9 10  1  0  0  0  0 
 11 14  1  0  0  0  0 
 13 15  1  0  0  0  0 
 14 16  1  0  0  0  0 
 14 17  1  0  0  0  0 
 15 18  1  0  0  0  0 
 16 19  1  0  0  0  0 
 17 20  1  0  0  0  0 
 18 21  1  0  0  0  0 
 18 22  1  0  0  0  0 
 19 23  1  0  0  0  0 
 21 24  1  0  0  0  0 
 22 25  1  0  0  0  0 
 23 26  1  0  0  0  0 
 24 27  1  0  0  0  0 
 27 28  1  0  0  0  0 
M  END
> <Name>
Cyclohexene-1,2-dicarboxylic acid, bis(2-ethylhexyl) ester

> <Source>
IndexNet2DMolFile

> <Tox>
0.539

> <CAS>
1330-92-3

$$$$

  CDK

 18 18  0  0  0  0  0  0  0  0999 V2000
    2.6032    4.0049    0.0000 C   0  0  0  0  0  0  0  0  0  0  0  0
    1.6020    4.0049    0.0000 C   0  0  0  0  0  0  0  0  0  0  0  0
    3.6044    4.0049    0.0000 C   0  0  0  0  0  0  0  0  0  0  0  0
    2.6032    5.0061    0.0000 C   0  0  0  0  0  0  0  0  0  0  0  0
    2.6032    3.0037    0.0000 C   0  0  0  0  0  0  0  0  0  0  0  0
    1.7521    2.5031    0.0000 C   0  0  0  0  0  0  0  0  0  0  0  0
    3.4542    2.5031    0.0000 C   0  0  0  0  0  0  0  0  0  0  0  0
    0.8510    3.0037    0.0000 O   0  0  0  0  0  0  0  0  0  0  0  0
    1.7521    1.5018    0.0000 C   0  0  0  0  0  0  0  0  0  0  0  0
    3.4542    1.5018    0.0000 C   0  0  0  0  0  0  0  0  0  0  0  0
    0.8510    1.0012    0.0000 C   0  0  0  0  0  0  0  0  0  0  0  0
    2.6032    1.0012    0.0000 C   0  0  0  0  0  0  0  0  0  0  0  0
    4.3553    1.0012    0.0000 C   0  0  0  0  0  0  0  0  0  0  0  0
    0.3504    1.8523    0.0000 C   0  0  0  0  0  0  0  0  0  0  0  0
    1.3517    0.1502    0.0000 C   0  0  0  0  0  0  0  0  0  0  0  0
    0.0000    0.5006    0.0000 C   0  0  0  0  0  0  0  0  0  0  0  0
    5.2064    1.5018    0.0000 O   0  0  0  0  0  0  0  0  0  0  0  0
    4.3553    0.0000    0.0000 O   0  0  0  0  0  0  0  0  0  0  0  0
  1  2  1  0  0  0  0 
  1  3  1  0  0  0  0 
  1  4  1  0  0  0  0 
  1  5  1  0  0  0  0 
  6  5  2  0  0  0  0 
  5  7  1  0  0  0  0 
  6  8  1  0  0  0  0 
  9  6  1  0  0  0  0 
  7 10  2  0  0  0  0 
  9 11  1  0  0  0  0 
 12  9  2  0  0  0  0 
 10 12  1  0  0  0  0 
 10 13  1  0  0  0  0 
 11 14  1  0  0  0  0 
 11 15  1  0  0  0  0 
 11 16  1  0  0  0  0 
 13 17  1  0  0  0  0 
 13 18  2  0  0  0  0 
M  END
> <Name>
Benzoic acid, 3,5-bis(1,1-dimethylethyl)-4-hydroxy-

> <Source>
NIST2DMolFile

> <Tox>
2.248

> <CAS>
1421-49-4

$$$$

  CDK

 14 14  0  0  0  0  0  0  0  0999 V2000
    0.9620    0.0000    0.0000 C   0  0  0  0  0  0  0  0  0  0  0  0
    1.9239    0.4557    0.0000 C   0  0  0  0  0  0  0  0  0  0  0  0
    0.0000    0.4557    0.0000 C   0  0  0  0  0  0  0  0  0  0  0  0
    1.9239    1.3670    0.0000 C   0  0  0  0  0  0  0  0  0  0  0  0
    0.0000    1.3670    0.0000 C   0  0  0  0  0  0  0  0  0  0  0  0
    0.9620    1.8227    0.0000 C   0  0  0  0  0  0  0  0  0  0  0  0
    2.8353    1.8227    0.0000 S   0  0  0  0  0  0  0  0  0  0  0  0
    2.8353    0.9113    0.0000 O   0  0  0  0  0  0  0  0  0  0  0  0
    3.7466    1.3670    0.0000 C   0  0  0  0  0  0  0  0  0  0  0  0
    2.8353    2.7340    0.0000 O   0  0  0  0  0  0  0  0  0  0  0  0
    4.6579    1.8227    0.0000 C   0  0  0  0  0  0  0  0  0  0  0  0
    5.6199    1.3670    0.0000 C   0  0  0  0  0  0  0  0  0  0  0  0
    4.6579    2.7340    0.0000 Cl  0  0  0  0  0  0  0  0  0  0  0  0
    6.5819    1.8227    0.0000 N   0  0  0  0  0  0  0  0  0  0  0  0
  2  1  2  0  0  0  0 
  1  3  1  0  0  0  0 
  4  2  1  0  0  0  0 
  3  5  2  0  0  0  0 
  6  4  2  0  0  0  0 
  4  7  1  0  0  0  0 
  5  6  1  0  0  0  0 
  8  7  2  0  0  0  0 
  7  9  1  0  0  0  0 
  7 10  2  0  0  0  0 
  9 11  1  0  0  0  0 
 11 12  1  0  0  0  0 
 11 13  1  0  0  0  0 
 12 14  3  0  0  0  0 
M  END
> <Name>
Propionitrile, 2-chloro-3-(phenylsulfonyl)-

> <Source>
NIST2DMolFile

> <Tox>
2.629

> <CAS>
1424-50-6

$$$$

  CDK

 13 12  0  0  0  0  0  0  0  0999 V2000
    2.8579    0.8250    0.0000 N   0  0  0  0  0  0  0  0  0  0  0  0
    2.1434    0.4125    0.0000 C   0  0  0  0  0  0  0  0  0  0  0  0
    2.1434   -0.4125    0.0000 O   0  0  0  0  0  0  0  0  0  0  0  0
    1.4289    0.8250    0.0000 O   0  0  0  0  0  0  0  0  0  0  0  0
    0.7145    0.4125    0.0000 C   0  0  0  0  0  0  0  0  0  0  0  0
   -0.0000    0.0000    0.0000 C   0  0  0  0  0  0  0  0  0  0  0  0
    0.4125   -0.7145    0.0000 C   0  0  0  0  0  0  0  0  0  0  0  0
   -0.4125    0.7145    0.0000 C   0  0  0  0  0  0  0  0  0  0  0  0
   -0.7145   -0.4125    0.0000 C   0  0  0  0  0  0  0  0  0  0  0  0
   -1.4289   -0.8250    0.0000 O   0  0  0  0  0  0  0  0  0  0  0  0
   -2.1434   -0.4125    0.0000 C   0  0  0  0  0  0  0  0  0  0  0  0
   -2.1434    0.4125    0.0000 O   0  0  0  0  0  0  0  0  0  0  0  0
   -2.8579   -0.8250    0.0000 N   0  0  0  0  0  0  0  0  0  0  0  0
  1  2  1  0  0  0  0 
  2  3  2  0  0  0  0 
  2  4  1  0  0  0  0 
  4  5  1  0  0  0  0 
  5  6  1  0  0  0  0 
  6  7  1  0  0  0  0 
  6  8  1  0  0  0  0 
  6  9  1  0  0  0  0 
  9 10  1  0  0  0  0 
 10 11  1  0  0  0  0 
 11 12  2  0  0  0  0 
 11 13  1  0  0  0  0 
M  END
> <Name>
1,3-Propanediol, 2,2-dimethyl-, dicarbamate

> <Source>
Smiles

> <Tox>
1.880

> <CAS>
1471-52-9

$$$$

  CDK

 10 10  0  0  0  0  0  0  0  0999 V2000
    1.1562   -1.9899    0.0000 C   0  0  0  0  0  0  0  0  0  0  0  0
    1.1562   -3.3257    0.0000 C   0  0  0  0  0  0  0  0  0  0  0  0
    2.3124   -1.3358    0.0000 C   0  0  0  0  0  0  0  0  0  0  0  0
    0.0000   -1.3358    0.0000 C   0  0  0  0  0  0  0  0  0  0  0  0
    2.3124   -3.9983    0.0000 C   0  0  0  0  0  0  0  0  0  0  0  0
    3.4501   -1.9899    0.0000 C   0  0  0  0  0  0  0  0  0  0  0  0
    0.0000   -0.0000    0.0000 N   0  0  0  0  0  0  0  0  0  0  0  0
    3.4501   -3.3257    0.0000 C   0  0  0  0  0  0  0  0  0  0  0  0
    4.6063   -1.3358    0.0000 C   0  0  0  0  0  0  0  0  0  0  0  0
    4.6063   -0.0000    0.0000 N   0  0  0  0  0  0  0  0  0  0  0  0
  1  2  2  0  0  0  0 
  1  3  1  0  0  0  0 
  1  4  1  0  0  0  0 
  2  5  1  0  0  0  0 
  6  3  2  0  0  0  0 
  4  7  1  0  0  0  0 
  5  8  2  0  0  0  0 
  8  6  1  0  0  0  0 
  6  9  1  0  0  0  0 
  9 10  1  0  0  0  0 
M  END
> <Name>
m-Xylene-alpha,alpha'-diamine (8CI)

> <Source>
DSSTox2DMolFile

> <Tox>
2.166

> <CAS>
1477-55-0

$$$$

  CDK

 19 20  0  0  0  0  0  0  0  0999 V2000
    3.4178   -5.6845    0.0000 N   0  0  0  0  0  0  0  0  0  0  0  0
    2.1516   -5.2772    0.0000 N   0  0  0  0  0  0  0  0  0  0  0  0
    4.1969   -4.6042    0.0000 C   0  0  0  0  0  0  0  0  0  0  0  0
    2.1516   -3.9402    0.0000 C   0  0  0  0  0  0  0  0  0  0  0  0
    3.4178   -3.5329    0.0000 S   0  0  0  0  0  0  0  0  0  0  0  0
    5.5251   -4.6042    0.0000 N   0  0  0  0  0  0  0  0  0  0  0  0
    1.0802   -3.1610    0.0000 C   0  0  0  0  0  0  0  0  0  0  0  0
    6.1980   -3.4532    0.0000 S   0  0  0  0  0  0  0  0  0  0  0  0
    0.2922   -4.2412    0.0000 C   0  0  0  0  0  0  0  0  0  0  0  0
    0.0000   -2.3818    0.0000 C   0  0  0  0  0  0  0  0  0  0  0  0
    1.8594   -2.0896    0.0000 C   0  0  0  0  0  0  0  0  0  0  0  0
    5.0381   -2.7891    0.0000 O   0  0  0  0  0  0  0  0  0  0  0  0
    7.3491   -4.1173    0.0000 O   0  0  0  0  0  0  0  0  0  0  0  0
    6.8621   -2.3021    0.0000 C   0  0  0  0  0  0  0  0  0  0  0  0
    8.1902   -2.3021    0.0000 C   0  0  0  0  0  0  0  0  0  0  0  0
    6.1980   -1.1511    0.0000 C   0  0  0  0  0  0  0  0  0  0  0  0
    8.8543   -1.1511    0.0000 C   0  0  0  0  0  0  0  0  0  0  0  0
    6.8621   -0.0000    0.0000 C   0  0  0  0  0  0  0  0  0  0  0  0
    8.1902   -0.0000    0.0000 C   0  0  0  0  0  0  0  0  0  0  0  0
  1  2  1  0  0  0  0 
  1  3  2  0  0  0  0 
  2  4  2  0  0  0  0 
  5  3  1  0  0  0  0 
  3  6  1  0  0  0  0 
  4  7  1  0  0  0  0 
  4  5  1  0  0  0  0 
  6  8  1  0  0  0  0 
  7  9  1  0  0  0  0 
  7 10  1  0  0  0  0 
  7 11  1  0  0  0  0 
  8 12  2  0  0  0  0 
  8 13  2  0  0  0  0 
  8 14  1  0  0  0  0 
 14 15  2  0  0  0  0 
 14 16  1  0  0  0  0 
 15 17  1  0  0  0  0 
 18 16  2  0  0  0  0 
 17 19  2  0  0  0  0 
 19 18  1  0  0  0  0 
M  END
> <Name>
Benzenesulfonamide, N-(5-tert-butyl-1,3,4-thiadiazol-2-yl)-

> <Source>
DSSTox2DMolFile

> <Tox>
2.774

> <CAS>
1492-02-0

$$$$

  CDK

 17 18  0  0  0  0  0  0  0  0999 V2000
   -5.5789    2.6272    5.3487 O   0  0  0  0  0  0  0  0  0  0  0  0
   -4.3645    2.2489    4.7097 C   0  0  0  0  0  0  0  0  0  0  0  0
   -5.5134    2.7842    6.7077 C   0  0  0  0  0  0  0  0  0  0  0  0
   -4.6296    2.0899    3.2143 C   0  0  0  0  0  0  0  0  0  0  0  0
   -3.2925    3.3040    4.9780 C   0  0  0  0  0  0  0  0  0  0  0  0
   -4.7606    2.1800    7.4592 O   0  0  0  0  0  0  0  0  0  0  0  0
   -6.5204    3.8257    7.1359 C   0  0  0  0  0  0  0  0  0  0  0  0
   -3.3467    1.7912    2.4427 C   0  0  0  0  0  0  0  0  0  0  0  0
   -2.0066    3.0093    4.2099 C   0  0  0  0  0  0  0  0  0  0  0  0
   -6.5174    4.0397    8.6394 C   0  0  0  0  0  0  0  0  0  0  0  0
   -2.2769    2.8571    2.7077 C   0  0  0  0  0  0  0  0  0  0  0  0
   -1.0464    2.5099    1.9972 N   0  0  0  0  0  0  0  0  0  0  0  0
   -1.2923    2.4344    0.5502 C   0  0  0  0  0  0  0  0  0  0  0  0
    0.0159    3.4775    2.3058 C   0  0  0  0  0  0  0  0  0  0  0  0
   -0.0265    2.0241   -0.2038 C   0  0  0  0  0  0  0  0  0  0  0  0
    1.3246    3.1012    1.6092 C   0  0  0  0  0  0  0  0  0  0  0  0
    1.1320    2.9664    0.1030 C   0  0  0  0  0  0  0  0  0  0  0  0
  1  2  1  0  0  0  0 
  1  3  1  0  0  0  0 
  4  2  1  0  0  0  0 
  5  2  1  0  0  0  0 
  6  3  2  0  0  0  0 
  3  7  1  0  0  0  0 
  8  4  1  0  0  0  0 
  9  5  1  0  0  0  0 
  7 10  1  0  0  0  0 
 11  8  1  0  0  0  0 
 11  9  1  0  0  0  0 
 12 11  1  0  0  0  0 
 12 13  1  0  0  0  0 
 12 14  1  0  0  0  0 
 13 15  1  0  0  0  0 
 14 16  1  0  0  0  0 
 15 17  1  0  0  0  0 
 16 17  1  0  0  0  0 
M  END
> <Name>
Cyclohexanol, 4-(1-piperidinyl)-, propanoate (ester) (9CI)

> <Source>
Chemidplus3DMolFile

> <Tox>
2.082

> <CAS>
1531-97-1

$$$$

  CDK

 27 29  0  0  0  0  0  0  0  0999 V2000
   -5.5789    2.6272    5.3487 O   0  0  0  0  0  0  0  0  0  0  0  0
   -4.3645    2.2489    4.7097 C   0  0  0  0  0  0  0  0  0  0  0  0
   -5.5182    2.7843    6.6991 C   0  0  0  0  0  0  0  0  0  0  0  0
   -3.2925    3.3040    4.9780 C   0  0  0  0  0  0  0  0  0  0  0  0
   -4.6296    2.0899    3.2143 C   0  0  0  0  0  0  0  0  0  0  0  0
   -4.7724    2.1865    7.4593 O   0  0  0  0  0  0  0  0  0  0  0  0
   -6.4999    3.8013    7.1537 C   0  0  0  0  0  0  0  0  0  0  0  0
   -2.0066    3.0093    4.2099 C   0  0  0  0  0  0  0  0  0  0  0  0
   -3.3467    1.7912    2.4427 C   0  0  0  0  0  0  0  0  0  0  0  0
   -7.0478    3.6819    8.4145 C   0  0  0  0  0  0  0  0  0  0  0  0
   -6.8352    4.8328    6.3009 C   0  0  0  0  0  0  0  0  0  0  0  0
   -2.2769    2.8571    2.7077 C   0  0  0  0  0  0  0  0  0  0  0  0
   -7.9716    4.6359    8.8411 C   0  0  0  0  0  0  0  0  0  0  0  0
   -7.7590    5.7869    6.7277 C   0  0  0  0  0  0  0  0  0  0  0  0
   -1.0464    2.5099    1.9972 N   0  0  0  0  0  0  0  0  0  0  0  0
   -8.5201    4.5277   10.0835 O   0  0  0  0  0  0  0  0  0  0  0  0
   -8.3272    5.6885    7.9978 C   0  0  0  0  0  0  0  0  0  0  0  0
   -8.0970    6.8100    5.8940 O   0  0  0  0  0  0  0  0  0  0  0  0
    0.0159    3.4775    2.3058 C   0  0  0  0  0  0  0  0  0  0  0  0
   -1.2923    2.4344    0.5502 C   0  0  0  0  0  0  0  0  0  0  0  0
   -7.8364    5.1785   11.1526 C   0  0  0  0  0  0  0  0  0  0  0  0
   -9.2297    6.6216    8.4145 O   0  0  0  0  0  0  0  0  0  0  0  0
   -7.3122    7.9981    5.9749 C   0  0  0  0  0  0  0  0  0  0  0  0
    1.3246    3.1012    1.6092 C   0  0  0  0  0  0  0  0  0  0  0  0
   -0.0265    2.0241   -0.2038 C   0  0  0  0  0  0  0  0  0  0  0  0
  -10.6035    6.3631    8.1348 C   0  0  0  0  0  0  0  0  0  0  0  0
    1.1320    2.9664    0.1030 C   0  0  0  0  0  0  0  0  0  0  0  0
  1  2  1  0  0  0  0 
  1  3  1  0  0  0  0 
  4  2  1  0  0  0  0 
  5  2  1  0  0  0  0 
  6  3  2  0  0  0  0 
  3  7  1  0  0  0  0 
  8  4  1  0  0  0  0 
  9  5  1  0  0  0  0 
  7 10  2  0  0  0  0 
  7 11  1  0  0  0  0 
 12  8  1  0  0  0  0 
 12  9  1  0  0  0  0 
 10 13  1  0  0  0  0 
 11 14  2  0  0  0  0 
 15 12  1  0  0  0  0 
 16 13  1  0  0  0  0 
 13 17  2  0  0  0  0 
 18 14  1  0  0  0  0 
 14 17  1  0  0  0  0 
 15 19  1  0  0  0  0 
 15 20  1  0  0  0  0 
 16 21  1  0  0  0  0 
 22 17  1  0  0  0  0 
 18 23  1  0  0  0  0 
 19 24  1  0  0  0  0 
 20 25  1  0  0  0  0 
 22 26  1  0  0  0  0 
 24 27  1  0  0  0  0 
 25 27  1  0  0  0  0 
M  END
> <Name>
Benzoic acid, 3,4,5-trimethoxy-, 4-piperidinocyclohexyl ester

> <Source>
Chemidplus3DMolFile

> <Tox>
2.764

> <CAS>
1532-12-3

$$$$

  CDK

 16 17  0  0  0  0  0  0  0  0999 V2000
    1.1508   -0.0000    0.0000 O   0  0  0  0  0  0  0  0  0  0  0  0
    1.1508   -1.3238    0.0000 C   0  0  0  0  0  0  0  0  0  0  0  0
    0.0000   -1.9890    0.0000 N   0  0  0  0  0  0  0  0  0  0  0  0
    2.3017   -1.9890    0.0000 O   0  0  0  0  0  0  0  0  0  0  0  0
    0.0000   -3.3195    0.0000 C   0  0  0  0  0  0  0  0  0  0  0  0
    2.3017   -3.3195    0.0000 C   0  0  0  0  0  0  0  0  0  0  0  0
    1.1508   -3.9847    0.0000 C   0  0  0  0  0  0  0  0  0  0  0  0
    3.4525   -3.9847    0.0000 C   0  0  0  0  0  0  0  0  0  0  0  0
    1.1508   -5.3151    0.0000 C   0  0  0  0  0  0  0  0  0  0  0  0
    3.4525   -5.3151    0.0000 C   0  0  0  0  0  0  0  0  0  0  0  0
    4.7231   -3.5722    0.0000 O   0  0  0  0  0  0  0  0  0  0  0  0
    2.3017   -5.9803    0.0000 C   0  0  0  0  0  0  0  0  0  0  0  0
    4.7231   -5.7276    0.0000 C   0  0  0  0  0  0  0  0  0  0  0  0
    5.5014   -4.6499    0.0000 C   0  0  0  0  0  0  0  0  0  0  0  0
    6.6522   -5.3151    0.0000 C   0  0  0  0  0  0  0  0  0  0  0  0
    6.6522   -3.9847    0.0000 C   0  0  0  0  0  0  0  0  0  0  0  0
  1  2  2  0  0  0  0 
  2  3  1  0  0  0  0 
  2  4  1  0  0  0  0 
  3  5  1  0  0  0  0 
  4  6  1  0  0  0  0 
  6  7  2  0  0  0  0 
  6  8  1  0  0  0  0 
  7  9  1  0  0  0  0 
 10  8  2  0  0  0  0 
  8 11  1  0  0  0  0 
  9 12  2  0  0  0  0 
 12 10  1  0  0  0  0 
 10 13  1  0  0  0  0 
 11 14  1  0  0  0  0 
 13 14  1  0  0  0  0 
 14 15  1  0  0  0  0 
 14 16  1  0  0  0  0 
M  END
> <Name>
Carbamic acid, methyl-, 2,3-dihydro-2,2-dimethyl-7-benzofuranyl ester

> <Source>
DSSTox2DMolFile

> <Tox>
4.646

> <CAS>
1563-66-2

$$$$

  CDK

 10 10  0  0  0  0  0  0  0  0999 V2000
    1.0056    0.0000    0.0000 O   0  0  0  0  0  0  0  0  0  0  0  0
    1.0056    1.0056    0.0000 P   0  0  0  0  0  0  0  0  0  0  0  0
    1.0056    2.0111    0.0000 O   0  0  0  0  0  0  0  0  0  0  0  0
    0.0000    1.0056    0.0000 O   0  0  0  0  0  0  0  0  0  0  0  0
    2.0111    1.0056    0.0000 C   0  0  0  0  0  0  0  0  0  0  0  0
    2.5139    1.8603    0.0000 C   0  0  0  0  0  0  0  0  0  0  0  0
    2.5139    0.1508    0.0000 C   0  0  0  0  0  0  0  0  0  0  0  0
    3.5195    1.8603    0.0000 C   0  0  0  0  0  0  0  0  0  0  0  0
    3.5195    0.1508    0.0000 C   0  0  0  0  0  0  0  0  0  0  0  0
    4.0223    1.0056    0.0000 C   0  0  0  0  0  0  0  0  0  0  0  0
  1  2  1  0  0  0  0 
  2  3  1  0  0  0  0 
  2  4  2  0  0  0  0 
  2  5  1  0  0  0  0 
  6  5  2  0  0  0  0 
  5  7  1  0  0  0  0 
  8  6  1  0  0  0  0 
  7  9  2  0  0  0  0 
 10  8  2  0  0  0  0 
  9 10  1  0  0  0  0 
M  END
> <Name>
Phosphonic acid, phenyl-

> <Source>
NIST2DMolFile

> <Tox>
1.898

> <CAS>
1571-33-1

$$$$

  CDK

 15 15  0  0  0  0  0  0  0  0999 V2000
    1.0025    0.8521    0.0000 C   0  0  0  0  0  0  0  0  0  0  0  0
    1.5038    1.7043    0.0000 N   0  0  0  0  0  0  0  0  0  0  0  0
    1.5038    0.0000    0.0000 C   0  0  0  0  0  0  0  0  0  0  0  0
    0.0000    0.8521    0.0000 C   0  0  0  0  0  0  0  0  0  0  0  0
    2.5063    1.7043    0.0000 C   0  0  0  0  0  0  0  0  0  0  0  0
    3.0076    2.6066    0.0000 N   0  0  0  0  0  0  0  0  0  0  0  0
    3.0076    0.8521    0.0000 N   0  0  0  0  0  0  0  0  0  0  0  0
    4.0101    2.6066    0.0000 C   0  0  0  0  0  0  0  0  0  0  0  0
    4.0101    0.8521    0.0000 C   0  0  0  0  0  0  0  0  0  0  0  0
    4.5114    3.4587    0.0000 N   0  0  0  0  0  0  0  0  0  0  0  0
    4.5114    1.7043    0.0000 N   0  0  0  0  0  0  0  0  0  0  0  0
    4.5114    0.0000    0.0000 O   0  0  0  0  0  0  0  0  0  0  0  0
    5.5139    3.4587    0.0000 C   0  0  0  0  0  0  0  0  0  0  0  0
    5.5139    0.0000    0.0000 C   0  0  0  0  0  0  0  0  0  0  0  0
    6.0152    4.3109    0.0000 C   0  0  0  0  0  0  0  0  0  0  0  0
  1  2  1  0  0  0  0 
  1  3  1  0  0  0  0 
  1  4  1  0  0  0  0 
  2  5  1  0  0  0  0 
  6  5  2  0  0  0  0 
  5  7  1  0  0  0  0 
  8  6  1  0  0  0  0 
  7  9  2  0  0  0  0 
  8 10  1  0  0  0  0 
 11  8  2  0  0  0  0 
  9 11  1  0  0  0  0 
  9 12  1  0  0  0  0 
 10 13  1  0  0  0  0 
 12 14  1  0  0  0  0 
 13 15  1  0  0  0  0 
M  END
> <Name>
1,3,5-Triazine-2,4-diamine, N-ethyl-6-methoxy-N'-(1-methylethyl)- (9CI)

> <Source>
NIST2DMolFile

> <Tox>
2.159

> <CAS>
1610-17-9

$$$$

  CDK

  8  7  0  0  0  0  0  0  0  0999 V2000
    0.0000    0.0000    0.0000 O   0  0  0  0  0  0  0  0  0  0  0  0
    1.3200    0.2000   -0.4400 C   0  0  0  0  0  0  0  0  0  0  0  0
   -0.9600    0.5600   -0.8600 C   0  0  0  0  0  0  0  0  0  0  0  0
    2.2600   -0.5200    0.5400 C   0  0  0  0  0  0  0  0  0  0  0  0
    2.6800    0.3800    1.5400 O   0  0  0  0  0  0  0  0  0  0  0  0
    3.7800    1.0400    1.2200 C   0  0  0  0  0  0  0  0  0  0  0  0
    4.3800    1.7600    2.2200 N   0  0  0  0  0  0  0  0  0  0  0  0
    4.2800    1.0200    0.1200 O   0  0  0  0  0  0  0  0  0  0  0  0
  1  2  1  0  0  0  0 
  1  3  1  0  0  0  0 
  2  4  1  0  0  0  0 
  4  5  1  0  0  0  0 
  5  6  1  0  0  0  0 
  6  7  1  0  0  0  0 
  6  8  2  0  0  0  0 
M  END
> <Name>
Ethanol, 2-methoxy-, carbamate

> <Source>
NIH3DMolFile

> <Tox>
1.035

> <CAS>
1616-88-2

$$$$

  CDK

  6  5  0  0  0  0  0  0  0  0999 V2000
    1.8169   -2.3040    0.0000 C   0  0  0  0  0  0  0  0  0  0  0  0
    1.1503   -1.1537    0.0000 C   0  0  0  0  0  0  0  0  0  0  0  0
    2.3040   -0.4870    0.0000 O   0  0  0  0  0  0  0  0  0  0  0  0
    0.0000   -1.8169    0.0000 C   0  0  0  0  0  0  0  0  0  0  0  0
    0.4870   -0.0000    0.0000 C   0  0  0  0  0  0  0  0  0  0  0  0
    3.4542   -1.1537    0.0000 C   0  0  0  0  0  0  0  0  0  0  0  0
  1  2  1  0  0  0  0 
  2  3  1  0  0  0  0 
  2  4  1  0  0  0  0 
  2  5  1  0  0  0  0 
  3  6  1  0  0  0  0 
M  END
> <Name>
Propane, 2-methoxy-2-methyl-

> <Source>
DSSTox2DMolFile

> <Tox>
1.343

> <CAS>
1634-04-4

$$$$

  CDK

 24 26  0  0  0  0  0  0  0  0999 V2000
    6.0023    1.6006    0.0000 C   0  0  0  0  0  0  0  0  0  0  0  0
    5.1520    2.0508    0.0000 C   0  0  0  0  0  0  0  0  0  0  0  0
    6.9027    2.1008    0.0000 N   0  0  0  0  0  0  0  0  0  0  0  0
    4.3017    1.5506    0.0000 C   0  0  0  0  0  0  0  0  0  0  0  0
    7.7530    1.5506    0.0000 C   0  0  0  0  0  0  0  0  0  0  0  0
    6.9027    3.1012    0.0000 C   0  0  0  0  0  0  0  0  0  0  0  0
    3.4013    2.0508    0.0000 C   0  0  0  0  0  0  0  0  0  0  0  0
    8.6033    2.1008    0.0000 C   0  0  0  0  0  0  0  0  0  0  0  0
    7.7530    3.6014    0.0000 C   0  0  0  0  0  0  0  0  0  0  0  0
    3.4013    3.0512    0.0000 O   0  0  0  0  0  0  0  0  0  0  0  0
    2.5510    1.5506    0.0000 C   0  0  0  0  0  0  0  0  0  0  0  0
    8.6033    3.1012    0.0000 N   0  0  0  0  0  0  0  0  0  0  0  0
    2.5510    0.5502    0.0000 C   0  0  0  0  0  0  0  0  0  0  0  0
    1.7007    2.0508    0.0000 C   0  0  0  0  0  0  0  0  0  0  0  0
    9.4537    3.6014    0.0000 C   0  0  0  0  0  0  0  0  0  0  0  0
    1.7007    0.0500    0.0000 C   0  0  0  0  0  0  0  0  0  0  0  0
    0.8503    1.5506    0.0000 C   0  0  0  0  0  0  0  0  0  0  0  0
   10.3540    3.1012    0.0000 C   0  0  0  0  0  0  0  0  0  0  0  0
    9.4537    4.6018    0.0000 N   0  0  0  0  0  0  0  0  0  0  0  0
    0.8503    0.5002    0.0000 C   0  0  0  0  0  0  0  0  0  0  0  0
   11.2043    3.6014    0.0000 C   0  0  0  0  0  0  0  0  0  0  0  0
   10.3540    5.1020    0.0000 C   0  0  0  0  0  0  0  0  0  0  0  0
    0.0000    0.0000    0.0000 F   0  0  0  0  0  0  0  0  0  0  0  0
   11.2043    4.6518    0.0000 C   0  0  0  0  0  0  0  0  0  0  0  0
  1  2  1  0  0  0  0 
  1  3  1  0  0  0  0 
  2  4  1  0  0  0  0 
  5  3  1  0  0  0  0 
  3  6  1  0  0  0  0 
  4  7  1  0  0  0  0 
  8  5  1  0  0  0  0 
  6  9  1  0  0  0  0 
  7 10  2  0  0  0  0 
  7 11  1  0  0  0  0 
 12  8  1  0  0  0  0 
  9 12  1  0  0  0  0 
 11 13  2  0  0  0  0 
 14 11  1  0  0  0  0 
 12 15  1  0  0  0  0 
 13 16  1  0  0  0  0 
 17 14  2  0  0  0  0 
 18 15  2  0  0  0  0 
 15 19  1  0  0  0  0 
 16 20  2  0  0  0  0 
 20 17  1  0  0  0  0 
 21 18  1  0  0  0  0 
 19 22  2  0  0  0  0 
 20 23  1  0  0  0  0 
 24 21  2  0  0  0  0 
 22 24  1  0  0  0  0 
M  END
> <Name>
1-Butanone, 1-(4-fluorophenyl)-4-(4-(2-pyridinyl)-1-piperazinyl)-

> <Source>
NIST2DMolFile

> <Tox>
3.126

> <CAS>
1649-18-9

$$$$

  CDK

  9  8  0  0  0  0  0  0  0  0999 V2000
    0.0000    0.4621   -0.0004 O   0  0  0  0  0  0  0  0  0  0  0  0
    1.1846   -0.3206   -0.0038 C   0  0  0  0  0  0  0  0  0  0  0  0
   -1.1844   -0.3207   -0.0039 C   0  0  0  0  0  0  0  0  0  0  0  0
    2.3489    0.6750    0.0006 C   0  0  0  0  0  0  0  0  0  0  0  0
   -2.3488    0.6748    0.0000 C   0  0  0  0  0  0  0  0  0  0  0  0
    3.6115   -0.0321    0.0016 C   0  0  0  0  0  0  0  0  0  0  0  0
   -3.6114   -0.0325    0.0016 C   0  0  0  0  0  0  0  0  0  0  0  0
    4.6258   -0.5927    0.0025 N   0  0  0  0  0  0  0  0  0  0  0  0
   -4.6262   -0.5922    0.0029 N   0  0  0  0  0  0  0  0  0  0  0  0
  1  2  1  0  0  0  0 
  1  3  1  0  0  0  0 
  4  2  1  0  0  0  0 
  5  3  1  0  0  0  0 
  6  4  1  0  0  0  0 
  7  5  1  0  0  0  0 
  6  8  3  0  0  0  0 
  7  9  3  0  0  0  0 
M  END
> <Name>
Propanenitrile, 3,3'-oxybis-

> <Source>
DougDB3DMolFile

> <Tox>
1.642

> <CAS>
1656-48-0

$$$$

  CDK

 10 10  0  0  0  0  0  0  0  0999 V2000
   -0.2204    0.9233   -0.1121 C   0  0  0  0  0  0  0  0  0  0  0  0
    1.1647    1.0239    0.0711 C   0  0  0  0  0  0  0  0  0  0  0  0
   -0.8375   -0.3289   -0.2921 C   0  0  0  0  0  0  0  0  0  0  0  0
   -1.0263    2.0308   -0.1241 O   0  0  0  0  0  0  0  0  0  0  0  0
    1.9475   -0.1294    0.0806 C   0  0  0  0  0  0  0  0  0  0  0  0
   -0.0308   -1.4663   -0.2782 C   0  0  0  0  0  0  0  0  0  0  0  0
   -2.3124   -0.4740   -0.4894 C   0  0  0  0  0  0  0  0  0  0  0  0
    1.3436   -1.3740   -0.0941 C   0  0  0  0  0  0  0  0  0  0  0  0
    3.4162   -0.0168    0.2747 C   0  0  0  0  0  0  0  0  0  0  0  0
   -3.0333   -0.6250    0.8344 C   0  0  0  0  0  0  0  0  0  0  0  0
  1  2  1  0  0  0  0 
  1  3  2  0  0  0  0 
  1  4  1  0  0  0  0 
  2  5  2  0  0  0  0 
  6  3  1  0  0  0  0 
  3  7  1  0  0  0  0 
  5  8  1  0  0  0  0 
  5  9  1  0  0  0  0 
  8  6  2  0  0  0  0 
  7 10  1  0  0  0  0 
M  END
> <Name>
m-Cresol, 6-ethyl-

> <Source>
DougDB3DMolFile

> <Tox>
2.410

> <CAS>
1687-61-2

$$$$

  CDK

 11 11  0  0  0  0  0  0  0  0999 V2000
    3.3240   -3.4570    0.0000 C   0  0  0  0  0  0  0  0  0  0  0  0
    1.9944   -3.4570    0.0000 C   0  0  0  0  0  0  0  0  0  0  0  0
    3.9888   -2.3069    0.0000 C   0  0  0  0  0  0  0  0  0  0  0  0
    1.3296   -4.6071    0.0000 I   0  0  0  0  0  0  0  0  0  0  0  0
    1.3296   -2.3069    0.0000 C   0  0  0  0  0  0  0  0  0  0  0  0
    3.3240   -1.1501    0.0000 C   0  0  0  0  0  0  0  0  0  0  0  0
    5.3184   -2.3069    0.0000 C   0  0  0  0  0  0  0  0  0  0  0  0
    0.0000   -2.3069    0.0000 O   0  0  0  0  0  0  0  0  0  0  0  0
    1.9944   -1.1501    0.0000 C   0  0  0  0  0  0  0  0  0  0  0  0
    6.6480   -2.3069    0.0000 N   0  0  0  0  0  0  0  0  0  0  0  0
    1.3296   -0.0000    0.0000 I   0  0  0  0  0  0  0  0  0  0  0  0
  1  2  2  0  0  0  0 
  1  3  1  0  0  0  0 
  2  4  1  0  0  0  0 
  2  5  1  0  0  0  0 
  6  3  2  0  0  0  0 
  3  7  1  0  0  0  0 
  5  8  1  0  0  0  0 
  5  9  2  0  0  0  0 
  9  6  1  0  0  0  0 
  7 10  3  0  0  0  0 
  9 11  1  0  0  0  0 
M  END
> <Name>
Benzonitrile, 3,5-diiodo-4-hydroxy-

> <Source>
DSSTox2DMolFile

> <Tox>
3.528

> <CAS>
1689-83-4

$$$$

  CDK

  9  9  0  0  0  0  0  0  0  0999 V2000
   -1.8823    1.1113    0.2995 C   0  0  0  0  0  0  0  0  0  0  0  0
   -0.4346    1.2616   -0.1758 C   0  0  0  0  0  0  0  0  0  0  0  0
   -2.4950   -0.0678   -0.1873 O   0  0  0  0  0  0  0  0  0  0  0  0
    0.3443    0.0316    0.1512 N   0  0  0  0  0  0  0  0  0  0  0  0
   -1.7858   -1.2372    0.1697 C   0  0  0  0  0  0  0  0  0  0  0  0
   -0.3317   -1.2129   -0.3131 C   0  0  0  0  0  0  0  0  0  0  0  0
    1.7773    0.0978    0.0293 C   0  0  0  0  0  0  0  0  0  0  0  0
    2.2944    1.1978   -0.0911 O   0  0  0  0  0  0  0  0  0  0  0  0
    2.5844   -1.1699    0.1440 C   0  0  0  0  0  0  0  0  0  0  0  0
  1  2  1  0  0  0  0 
  1  3  1  0  0  0  0 
  2  4  1  0  0  0  0 
  5  3  1  0  0  0  0 
  4  6  1  0  0  0  0 
  4  7  1  0  0  0  0 
  6  5  1  0  0  0  0 
  7  8  2  0  0  0  0 
  7  9  1  0  0  0  0 
M  END
> <Name>
Morpholine, 4-acetyl-

> <Source>
DougDB3DMolFile

> <Tox>
1.324

> <CAS>
1696-20-4

$$$$

  CDK

 57 60  0  0  0  0  0  0  0  0999 V2000
   11.1370   -1.7168    0.0000 C   0  0  0  0  0  0  0  0  0  0  0  0
   11.3759   -0.4031    0.0000 O   0  0  0  0  0  0  0  0  0  0  0  0
   12.1223   -2.5827    0.0000 C   0  0  0  0  0  0  0  0  0  0  0  0
    9.8681   -2.1498    0.0000 C   0  0  0  0  0  0  0  0  0  0  0  0
   11.8835   -3.8815    0.0000 C   0  0  0  0  0  0  0  0  0  0  0  0
   13.3913   -2.1348    0.0000 C   0  0  0  0  0  0  0  0  0  0  0  0
    9.6292   -3.4635    0.0000 C   0  0  0  0  0  0  0  0  0  0  0  0
    8.8529   -1.2839    0.0000 C   0  0  0  0  0  0  0  0  0  0  0  0
   10.6294   -4.3294    0.0000 C   0  0  0  0  0  0  0  0  0  0  0  0
   12.9434   -0.8808    0.0000 C   0  0  0  0  0  0  0  0  0  0  0  0
   13.8242   -3.3889    0.0000 C   0  0  0  0  0  0  0  0  0  0  0  0
   14.6453   -1.7019    0.0000 C   0  0  0  0  0  0  0  0  0  0  0  0
    9.7188   -0.2687    0.0000 C   0  0  0  0  0  0  0  0  0  0  0  0
    7.9870   -2.2841    0.0000 C   0  0  0  0  0  0  0  0  0  0  0  0
    7.8526   -0.4180    0.0000 C   0  0  0  0  0  0  0  0  0  0  0  0
   10.3756   -5.6282    0.0000 C   0  0  0  0  0  0  0  0  0  0  0  0
    9.2261   -6.3000    0.0000 C   0  0  0  0  0  0  0  0  0  0  0  0
    8.0915   -5.6282    0.0000 C   0  0  0  0  0  0  0  0  0  0  0  0
    9.2261   -7.6287    0.0000 C   0  0  0  0  0  0  0  0  0  0  0  0
    6.9420   -6.3000    0.0000 C   0  0  0  0  0  0  0  0  0  0  0  0
    8.0915   -4.2995    0.0000 C   0  0  0  0  0  0  0  0  0  0  0  0
    8.0915   -8.2856    0.0000 C   0  0  0  0  0  0  0  0  0  0  0  0
   10.3756   -8.2856    0.0000 C   0  0  0  0  0  0  0  0  0  0  0  0
    6.9420   -7.6287    0.0000 C   0  0  0  0  0  0  0  0  0  0  0  0
    5.5834   -5.9268    0.0000 C   0  0  0  0  0  0  0  0  0  0  0  0
    8.0915   -9.6143    0.0000 C   0  0  0  0  0  0  0  0  0  0  0  0
    5.7775   -8.2856    0.0000 C   0  0  0  0  0  0  0  0  0  0  0  0
    4.7623   -4.7325    0.0000 C   0  0  0  0  0  0  0  0  0  0  0  0
    9.2261  -10.2861    0.0000 C   0  0  0  0  0  0  0  0  0  0  0  0
    3.4486   -4.8818    0.0000 C   0  0  0  0  0  0  0  0  0  0  0  0
    5.2849   -3.5083    0.0000 C   0  0  0  0  0  0  0  0  0  0  0  0
   10.3756   -9.6143    0.0000 C   0  0  0  0  0  0  0  0  0  0  0  0
    9.2261  -11.6147    0.0000 C   0  0  0  0  0  0  0  0  0  0  0  0
    2.6424   -3.8218    0.0000 C   0  0  0  0  0  0  0  0  0  0  0  0
    4.4787   -2.4484    0.0000 C   0  0  0  0  0  0  0  0  0  0  0  0
   11.5401  -10.2861    0.0000 C   0  0  0  0  0  0  0  0  0  0  0  0
   10.3756  -12.2716    0.0000 C   0  0  0  0  0  0  0  0  0  0  0  0
    3.1500   -2.5976    0.0000 C   0  0  0  0  0  0  0  0  0  0  0  0
    1.3138   -3.9860    0.0000 C   0  0  0  0  0  0  0  0  0  0  0  0
    5.0012   -1.2242    0.0000 C   0  0  0  0  0  0  0  0  0  0  0  0
   11.5401  -11.6147    0.0000 C   0  0  0  0  0  0  0  0  0  0  0  0
   12.6896   -9.6143    0.0000 C   0  0  0  0  0  0  0  0  0  0  0  0
   10.3756  -13.6003    0.0000 C   0  0  0  0  0  0  0  0  0  0  0  0
    2.3737   -1.5377    0.0000 O   0  0  0  0  0  0  0  0  0  0  0  0
    1.4780   -5.2998    0.0000 C   0  0  0  0  0  0  0  0  0  0  0  0
    1.1645   -2.6574    0.0000 C   0  0  0  0  0  0  0  0  0  0  0  0
    0.0000   -4.1503    0.0000 C   0  0  0  0  0  0  0  0  0  0  0  0
    3.7770   -0.7017    0.0000 C   0  0  0  0  0  0  0  0  0  0  0  0
    6.2254   -1.7467    0.0000 C   0  0  0  0  0  0  0  0  0  0  0  0
    5.5237   -0.0000    0.0000 C   0  0  0  0  0  0  0  0  0  0  0  0
   12.6896  -12.2716    0.0000 O   0  0  0  0  0  0  0  0  0  0  0  0
   12.3313   -8.4647    0.0000 C   0  0  0  0  0  0  0  0  0  0  0  0
   13.3614  -10.7638    0.0000 C   0  0  0  0  0  0  0  0  0  0  0  0
   13.8392   -8.9574    0.0000 C   0  0  0  0  0  0  0  0  0  0  0  0
   11.7043  -13.6003    0.0000 C   0  0  0  0  0  0  0  0  0  0  0  0
    9.0470  -13.6003    0.0000 C   0  0  0  0  0  0  0  0  0  0  0  0
   10.3756  -14.9290    0.0000 C   0  0  0  0  0  0  0  0  0  0  0  0
  1  2  1  0  0  0  0 
  1  3  2  0  0  0  0 
  1  4  1  0  0  0  0 
  3  5  1  0  0  0  0 
  3  6  1  0  0  0  0 
  4  7  2  0  0  0  0 
  4  8  1  0  0  0  0 
  5  9  2  0  0  0  0 
  6 10  1  0  0  0  0 
  6 11  1  0  0  0  0 
  6 12  1  0  0  0  0 
  7  9  1  0  0  0  0 
  8 13  1  0  0  0  0 
  8 14  1  0  0  0  0 
  8 15  1  0  0  0  0 
  9 16  1  0  0  0  0 
 17 16  1  0  0  0  0 
 18 17  1  0  0  0  0 
 17 19  2  0  0  0  0 
 20 18  2  0  0  0  0 
 18 21  1  0  0  0  0 
 19 22  1  0  0  0  0 
 19 23  1  0  0  0  0 
 20 24  1  0  0  0  0 
 20 25  1  0  0  0  0 
 22 24  2  0  0  0  0 
 22 26  1  0  0  0  0 
 24 27  1  0  0  0  0 
 28 25  1  0  0  0  0 
 29 26  1  0  0  0  0 
 30 28  1  0  0  0  0 
 31 28  2  0  0  0  0 
 32 29  1  0  0  0  0 
 33 29  2  0  0  0  0 
 34 30  2  0  0  0  0 
 35 31  1  0  0  0  0 
 36 32  2  0  0  0  0 
 37 33  1  0  0  0  0 
 38 34  1  0  0  0  0 
 34 39  1  0  0  0  0 
 38 35  2  0  0  0  0 
 35 40  1  0  0  0  0 
 41 36  1  0  0  0  0 
 36 42  1  0  0  0  0 
 41 37  2  0  0  0  0 
 37 43  1  0  0  0  0 
 38 44  1  0  0  0  0 
 39 45  1  0  0  0  0 
 39 46  1  0  0  0  0 
 39 47  1  0  0  0  0 
 40 48  1  0  0  0  0 
 40 49  1  0  0  0  0 
 40 50  1  0  0  0  0 
 41 51  1  0  0  0  0 
 42 52  1  0  0  0  0 
 42 53  1  0  0  0  0 
 42 54  1  0  0  0  0 
 43 55  1  0  0  0  0 
 43 56  1  0  0  0  0 
 43 57  1  0  0  0  0 
M  END
> <Name>
Phenol, 4,4',4''-((2,4,6-trimethyl-1,3,5-benzenetriyl)tris(methylene))tris(2,6-bis(1,1-dimethylethyl)-

> <Source>
DSSTox2DMolFile

> <Tox>
2.713

> <CAS>
1709-70-2

$$$$

  CDK

 17 17  0  0  0  0  0  0  0  0999 V2000
   -2.5799   -1.3952    0.2225 C   0  0  0  0  0  0  0  0  0  0  0  0
   -1.4860   -2.3324   -0.2946 C   0  0  0  0  0  0  0  0  0  0  0  0
   -3.7550   -1.4321   -0.0775 O   0  0  0  0  0  0  0  0  0  0  0  0
   -2.1247   -0.4890    1.1335 O   0  0  0  0  0  0  0  0  0  0  0  0
   -0.6101   -1.6580   -1.1733 O   0  0  0  0  0  0  0  0  0  0  0  0
   -2.9745    0.5663    1.5676 C   0  0  0  0  0  0  0  0  0  0  0  0
    0.5434   -1.1137   -0.6264 C   0  0  0  0  0  0  0  0  0  0  0  0
   -3.0658    1.7077    0.5595 C   0  0  0  0  0  0  0  0  0  0  0  0
    1.0712    0.0107   -1.2906 C   0  0  0  0  0  0  0  0  0  0  0  0
    1.2075   -1.6852    0.4646 C   0  0  0  0  0  0  0  0  0  0  0  0
   -1.7528    2.4596    0.4119 C   0  0  0  0  0  0  0  0  0  0  0  0
    2.2839    0.5344   -0.8434 C   0  0  0  0  0  0  0  0  0  0  0  0
    0.3691    0.6436   -2.4368 C   0  0  0  0  0  0  0  0  0  0  0  0
    2.4099   -1.1464    0.9002 C   0  0  0  0  0  0  0  0  0  0  0  0
   -1.8458    3.5252   -0.6567 C   0  0  0  0  0  0  0  0  0  0  0  0
    2.9413   -0.0425    0.2397 C   0  0  0  0  0  0  0  0  0  0  0  0
    4.4053    0.6119    0.7626 Cl  0  0  0  0  0  0  0  0  0  0  0  0
  1  2  1  0  0  0  0 
  1  3  2  0  0  0  0 
  1  4  1  0  0  0  0 
  2  5  1  0  0  0  0 
  4  6  1  0  0  0  0 
  5  7  1  0  0  0  0 
  6  8  1  0  0  0  0 
  7  9  1  0  0  0  0 
  7 10  2  0  0  0  0 
  8 11  1  0  0  0  0 
  9 12  2  0  0  0  0 
  9 13  1  0  0  0  0 
 10 14  1  0  0  0  0 
 11 15  1  0  0  0  0 
 16 12  1  0  0  0  0 
 16 14  2  0  0  0  0 
 16 17  1  0  0  0  0 
M  END
> <Name>
Acetic acid, ((4-chloro-o-tolyl)oxy)-, butyl ester

> <Source>
DougDB3DMolFile

> <Tox>
2.449

> <CAS>
1713-12-8

$$$$

  CDK

 10 11  0  0  0  0  0  0  0  0999 V2000
    0.0000    0.4586    0.0000 N   0  0  0  0  0  0  0  0  0  0  0  0
    0.0000    1.4778    0.0000 N   0  0  0  0  0  0  0  0  0  0  0  0
    0.8663    0.0000    0.0000 C   0  0  0  0  0  0  0  0  0  0  0  0
    0.8663    1.9874    0.0000 C   0  0  0  0  0  0  0  0  0  0  0  0
    1.7836    0.4586    0.0000 N   0  0  0  0  0  0  0  0  0  0  0  0
    1.7836    1.4778    0.0000 N   0  0  0  0  0  0  0  0  0  0  0  0
    2.6499    0.0000    0.0000 C   0  0  0  0  0  0  0  0  0  0  0  0
    2.6499    1.9874    0.0000 C   0  0  0  0  0  0  0  0  0  0  0  0
    3.4652    0.4586    0.0000 N   0  0  0  0  0  0  0  0  0  0  0  0
    3.4652    1.4778    0.0000 N   0  0  0  0  0  0  0  0  0  0  0  0
  1  2  1  0  0  0  0 
  3  1  1  0  0  0  0 
  2  4  1  0  0  0  0 
  5  3  1  0  0  0  0 
  4  6  1  0  0  0  0 
  5  6  1  0  0  0  0 
  7  5  1  0  0  0  0 
  6  8  1  0  0  0  0 
  9  7  1  0  0  0  0 
  8 10  1  0  0  0  0 
 10  9  1  0  0  0  0 
M  END
> <Name>
(1,2,4,5)Tetrazino(1,2-a)(1,2,4,5)tetrazine, octahydro- (9CI)

> <Source>
NIST2DMolFile

> <Tox>
2.560

> <CAS>
1743-13-1

$$$$

  CDK

 18 20  0  0  0  0  0  0  0  0999 V2000
    9.2104   -2.6618    0.0000 Cl  0  0  0  0  0  0  0  0  0  0  0  0
    8.0591   -1.9986    0.0000 C   0  0  0  0  0  0  0  0  0  0  0  0
    6.9078   -2.6618    0.0000 C   0  0  0  0  0  0  0  0  0  0  0  0
    8.0591   -0.6631    0.0000 C   0  0  0  0  0  0  0  0  0  0  0  0
    5.7565   -1.9986    0.0000 C   0  0  0  0  0  0  0  0  0  0  0  0
    6.9078   -0.0000    0.0000 C   0  0  0  0  0  0  0  0  0  0  0  0
    9.2104   -0.0000    0.0000 Cl  0  0  0  0  0  0  0  0  0  0  0  0
    5.7565   -0.6631    0.0000 C   0  0  0  0  0  0  0  0  0  0  0  0
    4.6052   -2.6618    0.0000 O   0  0  0  0  0  0  0  0  0  0  0  0
    4.6052   -0.0000    0.0000 O   0  0  0  0  0  0  0  0  0  0  0  0
    3.4539   -1.9986    0.0000 C   0  0  0  0  0  0  0  0  0  0  0  0
    3.4539   -0.6631    0.0000 C   0  0  0  0  0  0  0  0  0  0  0  0
    2.3026   -2.6618    0.0000 C   0  0  0  0  0  0  0  0  0  0  0  0
    2.3026   -0.0000    0.0000 C   0  0  0  0  0  0  0  0  0  0  0  0
    1.1513   -1.9986    0.0000 C   0  0  0  0  0  0  0  0  0  0  0  0
    1.1513   -0.6631    0.0000 C   0  0  0  0  0  0  0  0  0  0  0  0
    0.0000   -2.6618    0.0000 Cl  0  0  0  0  0  0  0  0  0  0  0  0
    0.0000   -0.0000    0.0000 Cl  0  0  0  0  0  0  0  0  0  0  0  0
  1  2  1  0  0  0  0 
  2  3  2  0  0  0  0 
  2  4  1  0  0  0  0 
  3  5  1  0  0  0  0 
  6  4  2  0  0  0  0 
  4  7  1  0  0  0  0 
  5  8  2  0  0  0  0 
  5  9  1  0  0  0  0 
  8  6  1  0  0  0  0 
  8 10  1  0  0  0  0 
 11  9  1  0  0  0  0 
 10 12  1  0  0  0  0 
 12 11  2  0  0  0  0 
 11 13  1  0  0  0  0 
 12 14  1  0  0  0  0 
 13 15  2  0  0  0  0 
 16 14  2  0  0  0  0 
 15 16  1  0  0  0  0 
 15 17  1  0  0  0  0 
 16 18  1  0  0  0  0 
M  END
> <Name>
Dibenzo(b,e)(1,4)dioxin, 2,3,7,8-tetrachloro-

> <Source>
DSSTox2DMolFile

> <Tox>
7.207

> <CAS>
1746-01-6

$$$$

  CDK

 13 13  0  0  0  0  0  0  0  0999 V2000
    1.6954    1.7453    0.0000 P   0  0  0  0  0  0  0  0  0  0  0  0
    2.1941    2.5930    0.0000 O   0  0  0  0  0  0  0  0  0  0  0  0
    1.1968    0.8976    0.0000 N   0  0  0  0  0  0  0  0  0  0  0  0
    0.8477    2.2439    0.0000 N   0  0  0  0  0  0  0  0  0  0  0  0
    2.5930    1.2466    0.0000 O   0  0  0  0  0  0  0  0  0  0  0  0
    3.1914    2.5930    0.0000 C   0  0  0  0  0  0  0  0  0  0  0  0
    1.6954    0.0000    0.0000 C   0  0  0  0  0  0  0  0  0  0  0  0
    0.0000    1.7453    0.0000 C   0  0  0  0  0  0  0  0  0  0  0  0
    3.6900    3.4906    0.0000 C   0  0  0  0  0  0  0  0  0  0  0  0
    3.6900    1.7453    0.0000 C   0  0  0  0  0  0  0  0  0  0  0  0
    4.6873    3.4906    0.0000 C   0  0  0  0  0  0  0  0  0  0  0  0
    4.6873    1.7453    0.0000 C   0  0  0  0  0  0  0  0  0  0  0  0
    5.1860    2.5930    0.0000 C   0  0  0  0  0  0  0  0  0  0  0  0
  1  2  1  0  0  0  0 
  1  3  1  0  0  0  0 
  1  4  1  0  0  0  0 
  1  5  2  0  0  0  0 
  2  6  1  0  0  0  0 
  3  7  1  0  0  0  0 
  4  8  1  0  0  0  0 
  9  6  2  0  0  0  0 
  6 10  1  0  0  0  0 
 11  9  1  0  0  0  0 
 10 12  2  0  0  0  0 
 13 11  2  0  0  0  0 
 12 13  1  0  0  0  0 
M  END
> <Name>
Phosphorodiamidic acid, N,N'-dimethyl-, phenyl ester

> <Source>
NIST2DMolFile

> <Tox>
3.155

> <CAS>
1754-58-1

$$$$

  CDK

 10 10  0  0  0  0  0  0  0  0999 V2000
    0.0391    1.9902    2.1298 S   0  0  0  0  0  0  0  0  0  0  0  0
    1.0205    0.7982    1.5944 O   0  0  0  0  0  0  0  0  0  0  0  0
    0.2184    3.1515    0.9941 O   0  0  0  0  0  0  0  0  0  0  0  0
    0.5974    2.4966    3.3693 O   0  0  0  0  0  0  0  0  0  0  0  0
   -1.3300    1.5117    2.0830 O   0  0  0  0  0  0  0  0  0  0  0  0
    0.9764    0.4519    0.2124 C   0  0  0  0  0  0  0  0  0  0  0  0
    0.1869    2.7693   -0.3789 C   0  0  0  0  0  0  0  0  0  0  0  0
    1.2305    1.6767   -0.6906 C   0  0  0  0  0  0  0  0  0  0  0  0
    1.1071    1.2590   -2.1630 C   0  0  0  0  0  0  0  0  0  0  0  0
    2.6483    2.2239   -0.4390 C   0  0  0  0  0  0  0  0  0  0  0  0
  1  2  1  0  0  0  0 
  1  3  1  0  0  0  0 
  1  4  2  0  0  0  0 
  1  5  2  0  0  0  0 
  2  6  1  0  0  0  0 
  3  7  1  0  0  0  0 
  8  6  1  0  0  0  0 
  8  7  1  0  0  0  0 
  8  9  1  0  0  0  0 
  8 10  1  0  0  0  0 
M  END
> <Name>
1,3,2-Dioxathiane, 5,5-dimethyl-, 2,2-dioxide

> <Source>
Chemidplus3DMolFile

> <Tox>
4.221

> <CAS>
1755-97-1

$$$$

  CDK

 22 24  0  0  0  0  0  0  0  0999 V2000
    6.0633    5.0372    0.0000 S   0  0  0  0  0  0  0  0  0  0  0  0
    6.0633    3.6380    0.0000 P   0  0  0  0  0  0  0  0  0  0  0  0
    4.8506    2.9384    0.0000 O   0  0  0  0  0  0  0  0  0  0  0  0
    7.4159    3.2649    0.0000 O   0  0  0  0  0  0  0  0  0  0  0  0
    6.7629    2.4253    0.0000 C   0  0  0  0  0  0  0  0  0  0  0  0
    3.6380    3.6380    0.0000 C   0  0  0  0  0  0  0  0  0  0  0  0
    8.3953    4.2443    0.0000 C   0  0  0  0  0  0  0  0  0  0  0  0
    6.0633    1.2127    0.0000 C   0  0  0  0  0  0  0  0  0  0  0  0
    8.1621    2.4253    0.0000 C   0  0  0  0  0  0  0  0  0  0  0  0
    3.6380    5.0372    0.0000 C   0  0  0  0  0  0  0  0  0  0  0  0
    2.4253    2.9384    0.0000 C   0  0  0  0  0  0  0  0  0  0  0  0
    9.7479    3.9178    0.0000 C   0  0  0  0  0  0  0  0  0  0  0  0
    6.7629    0.0000    0.0000 C   0  0  0  0  0  0  0  0  0  0  0  0
    8.8617    1.2127    0.0000 C   0  0  0  0  0  0  0  0  0  0  0  0
    2.4253    5.7368    0.0000 C   0  0  0  0  0  0  0  0  0  0  0  0
    1.2127    3.6380    0.0000 C   0  0  0  0  0  0  0  0  0  0  0  0
    2.4253    1.5391    0.0000 N   0  0  0  0  0  0  0  0  0  0  0  0
    8.1621    0.0000    0.0000 C   0  0  0  0  0  0  0  0  0  0  0  0
    1.2127    5.0372    0.0000 C   0  0  0  0  0  0  0  0  0  0  0  0
    0.0000    2.9384    0.0000 C   0  0  0  0  0  0  0  0  0  0  0  0
    1.2127    0.7929    0.0000 C   0  0  0  0  0  0  0  0  0  0  0  0
    0.0000    1.5391    0.0000 C   0  0  0  0  0  0  0  0  0  0  0  0
  1  2  2  0  0  0  0 
  2  3  1  0  0  0  0 
  2  4  1  0  0  0  0 
  2  5  1  0  0  0  0 
  3  6  1  0  0  0  0 
  4  7  1  0  0  0  0 
  5  8  2  0  0  0  0 
  5  9  1  0  0  0  0 
  6 10  2  0  0  0  0 
  6 11  1  0  0  0  0 
  7 12  1  0  0  0  0 
  8 13  1  0  0  0  0 
 14  9  2  0  0  0  0 
 10 15  1  0  0  0  0 
 16 11  2  0  0  0  0 
 11 17  1  0  0  0  0 
 13 18  2  0  0  0  0 
 18 14  1  0  0  0  0 
 15 19  2  0  0  0  0 
 19 16  1  0  0  0  0 
 16 20  1  0  0  0  0 
 21 17  2  0  0  0  0 
 20 22  2  0  0  0  0 
 22 21  1  0  0  0  0 
M  END
> <Name>
Phosphonothioic acid, phenyl-, O-ethyl O-8-quinolinyl ester (9CI)

> <Source>
IndexNet2DMolFile

> <Tox>
3.342

> <CAS>
1776-83-6

$$$$

  CDK

 17 19  0  0  0  0  0  0  0  0999 V2000
    0.3375   -0.1117    0.0000 O   0  0  0  0  0  0  0  0  0  0  0  0
    0.3375    0.7133    0.0000 C   0  0  0  0  0  0  0  0  0  0  0  0
   -0.3770   -0.5242    0.0000 C   0  0  0  0  0  0  0  0  0  0  0  0
   -0.3770    1.1258    0.0000 C   0  0  0  0  0  0  0  0  0  0  0  0
   -1.0914   -0.1117    0.0000 O   0  0  0  0  0  0  0  0  0  0  0  0
    0.0889   -1.2051    0.0000 C   0  0  0  0  0  0  0  0  0  0  0  0
    0.3375    1.5383    0.0000 C   0  0  0  0  0  0  0  0  0  0  0  0
   -1.0914    1.5383    0.0000 C   0  0  0  0  0  0  0  0  0  0  0  0
   -1.0914    0.7133    0.0000 C   0  0  0  0  0  0  0  0  0  0  0  0
   -0.2679   -1.9490    0.0000 C   0  0  0  0  0  0  0  0  0  0  0  0
    0.9114   -1.1421    0.0000 C   0  0  0  0  0  0  0  0  0  0  0  0
    0.3375    2.3633    0.0000 C   0  0  0  0  0  0  0  0  0  0  0  0
   -1.0914    2.3633    0.0000 C   0  0  0  0  0  0  0  0  0  0  0  0
    0.1979   -2.6299    0.0000 C   0  0  0  0  0  0  0  0  0  0  0  0
    1.3773   -1.8230    0.0000 C   0  0  0  0  0  0  0  0  0  0  0  0
   -0.3770    2.7758    0.0000 C   0  0  0  0  0  0  0  0  0  0  0  0
    1.0205   -2.5669    0.0000 C   0  0  0  0  0  0  0  0  0  0  0  0
  1  2  1  0  0  0  0 
  1  3  1  0  0  0  0 
  2  4  1  0  0  0  0 
  5  3  1  0  0  0  0 
  3  6  1  0  0  0  0 
  4  7  1  0  0  0  0 
  4  8  1  0  0  0  0 
  4  9  1  0  0  0  0 
  9  5  1  0  0  0  0 
  6 10  1  0  0  0  0 
  6 11  1  0  0  0  0 
  7 12  1  0  0  0  0 
 13  8  1  0  0  0  0 
 10 14  1  0  0  0  0 
 15 11  1  0  0  0  0 
 12 16  1  0  0  0  0 
 16 13  2  0  0  0  0 
 14 17  1  0  0  0  0 
 17 15  2  0  0  0  0 
M  END
> <Name>
2,4-Dioxaspiro(5.5)undec-8-ene, 3-(3-cyclohexen-1-yl)-

> <Source>
Smiles

> <Tox>
1.655

> <CAS>
1820-50-4

$$$$

  CDK

 19 20  0  0  0  0  0  0  0  0999 V2000
   -0.0163   -0.0122   -1.4755 O   0  0  0  0  0  0  0  0  0  0  0  0
   -1.1727   -0.0051   -0.7010 C   0  0  0  0  0  0  0  0  0  0  0  0
    1.1847   -0.0071   -0.7966 C   0  0  0  0  0  0  0  0  0  0  0  0
   -1.7915    1.2132   -0.3854 C   0  0  0  0  0  0  0  0  0  0  0  0
   -1.7969   -1.2177   -0.3745 C   0  0  0  0  0  0  0  0  0  0  0  0
    1.3254    0.0027    0.5956 C   0  0  0  0  0  0  0  0  0  0  0  0
    2.3127   -0.0129   -1.6336 C   0  0  0  0  0  0  0  0  0  0  0  0
   -3.0204    1.2172    0.2705 C   0  0  0  0  0  0  0  0  0  0  0  0
   -1.0787    2.6747   -0.7983 Cl  0  0  0  0  0  0  0  0  0  0  0  0
   -3.0257   -1.2103    0.2814 C   0  0  0  0  0  0  0  0  0  0  0  0
   -1.0907   -2.6861   -0.7738 Cl  0  0  0  0  0  0  0  0  0  0  0  0
    2.5962    0.0068    1.1515 C   0  0  0  0  0  0  0  0  0  0  0  0
    3.5763   -0.0089   -1.0672 C   0  0  0  0  0  0  0  0  0  0  0  0
   -3.6242    0.0062    0.6010 C   0  0  0  0  0  0  0  0  0  0  0  0
    3.7285    0.0010    0.3275 C   0  0  0  0  0  0  0  0  0  0  0  0
   -5.1061    0.0131    1.3947 Cl  0  0  0  0  0  0  0  0  0  0  0  0
    5.0944    0.0055    0.9310 N   0  0  0  0  0  0  0  0  0  0  0  0
    6.0698   -0.0014    0.2054 O   0  0  0  0  0  0  0  0  0  0  0  0
    5.2141    0.0161    2.1409 O   0  0  0  0  0  0  0  0  0  0  0  0
  1  2  1  0  0  0  0 
  1  3  1  0  0  0  0 
  2  4  1  0  0  0  0 
  2  5  2  0  0  0  0 
  3  6  1  0  0  0  0 
  3  7  2  0  0  0  0 
  4  8  2  0  0  0  0 
  4  9  1  0  0  0  0 
 10  5  1  0  0  0  0 
  5 11  1  0  0  0  0 
  6 12  2  0  0  0  0 
 13  7  1  0  0  0  0 
  8 14  1  0  0  0  0 
 14 10  2  0  0  0  0 
 12 15  1  0  0  0  0 
 15 13  2  0  0  0  0 
 14 16  1  0  0  0  0 
 15 17  1  0  0  0  0 
 17 18  2  0  0  0  0 
 17 19  1  0  0  0  0 
M  CHG  1  17   1
M  CHG  1  19  -1
M  END
> <Name>
Ether, p-nitrophenyl 2,4,6-trichlorophenyl

> <Source>
DougDB3DMolFile

> <Tox>
1.470

> <CAS>
1836-77-7

$$$$

  CDK

 17 18  0  0  0  0  0  0  0  0999 V2000
    0.0000    0.0000    0.0000 O   0  0  0  0  0  0  0  0  0  0  0  0
    0.9000   -0.8000    0.0000 C   0  0  0  0  0  0  0  0  0  0  0  0
    0.6600   -2.4800    0.0000 S   0  0  0  0  0  0  0  0  0  0  0  0
    2.3200   -0.3600    0.0000 C   0  0  0  0  0  0  0  0  0  0  0  0
   -1.0200   -2.6200    0.0000 C   0  0  0  0  0  0  0  0  0  0  0  0
    2.6200    1.0200    0.0000 C   0  0  0  0  0  0  0  0  0  0  0  0
    3.3600   -1.3200    0.0000 C   0  0  0  0  0  0  0  0  0  0  0  0
   -1.7800   -1.6800    0.0000 O   0  0  0  0  0  0  0  0  0  0  0  0
   -1.7200   -3.9400    0.0000 C   0  0  0  0  0  0  0  0  0  0  0  0
    3.9600    1.4200    0.0000 C   0  0  0  0  0  0  0  0  0  0  0  0
    4.7000   -0.9000    0.0000 C   0  0  0  0  0  0  0  0  0  0  0  0
   -3.1200   -3.9800    0.0000 C   0  0  0  0  0  0  0  0  0  0  0  0
   -0.9800   -5.1200    0.0000 C   0  0  0  0  0  0  0  0  0  0  0  0
    5.0000    0.4800    0.0000 C   0  0  0  0  0  0  0  0  0  0  0  0
   -3.7800   -5.2200    0.0000 C   0  0  0  0  0  0  0  0  0  0  0  0
   -1.6400   -6.3600    0.0000 C   0  0  0  0  0  0  0  0  0  0  0  0
   -3.0400   -6.4200    0.0000 C   0  0  0  0  0  0  0  0  0  0  0  0
  1  2  2  0  0  0  0 
  2  3  1  0  0  0  0 
  2  4  1  0  0  0  0 
  3  5  1  0  0  0  0 
  4  6  2  0  0  0  0 
  4  7  1  0  0  0  0 
  5  8  2  0  0  0  0 
  5  9  1  0  0  0  0 
  6 10  1  0  0  0  0 
 11  7  2  0  0  0  0 
  9 12  2  0  0  0  0 
  9 13  1  0  0  0  0 
 10 14  2  0  0  0  0 
 14 11  1  0  0  0  0 
 12 15  1  0  0  0  0 
 16 13  2  0  0  0  0 
 15 17  2  0  0  0  0 
 17 16  1  0  0  0  0 
M  END
> <Name>
Benzenecarbothioic acid, anhydrosulfide

> <Source>
NIH3DMolFile

> <Tox>
1.685

> <CAS>
1850-15-3

$$$$

  CDK

 18 20  0  0  0  0  0  0  0  0999 V2000
    0.0000    0.0000    0.0000 C   0  0  0  0  0  0  0  0  0  0  0  0
   -0.9800   -1.0800    0.0000 N   0  0  0  0  0  0  0  0  0  0  0  0
   -0.6400    1.3200   -0.1000 C   0  0  0  0  0  0  0  0  0  0  0  0
   -0.5800   -2.3800    0.1000 C   0  0  0  0  0  0  0  0  0  0  0  0
   -1.2200    1.9200    1.0400 C   0  0  0  0  0  0  0  0  0  0  0  0
   -0.6600    2.0200   -1.3200 C   0  0  0  0  0  0  0  0  0  0  0  0
   -1.5400   -3.4000    0.1200 N   0  0  0  0  0  0  0  0  0  0  0  0
    0.7800   -2.7600    0.1800 C   0  0  0  0  0  0  0  0  0  0  0  0
   -1.8200    3.1800    0.9400 C   0  0  0  0  0  0  0  0  0  0  0  0
   -1.2600    3.2800   -1.4200 C   0  0  0  0  0  0  0  0  0  0  0  0
   -1.1400   -4.7200    0.2000 C   0  0  0  0  0  0  0  0  0  0  0  0
    1.0400   -4.1000    0.2600 C   0  0  0  0  0  0  0  0  0  0  0  0
    1.9400   -2.0000    0.1800 C   0  0  0  0  0  0  0  0  0  0  0  0
   -1.8400    3.8600   -0.2800 C   0  0  0  0  0  0  0  0  0  0  0  0
   -2.2000   -5.7600    0.2200 C   0  0  0  0  0  0  0  0  0  0  0  0
    0.1600   -5.1400    0.2800 N   0  0  0  0  0  0  0  0  0  0  0  0
    2.3800   -4.3000    0.3200 N   0  0  0  0  0  0  0  0  0  0  0  0
    2.9400   -3.0200    0.2800 C   0  0  0  0  0  0  0  0  0  0  0  0
  1  2  1  0  0  0  0 
  1  3  1  0  0  0  0 
  2  4  1  0  0  0  0 
  3  5  2  0  0  0  0 
  3  6  1  0  0  0  0 
  4  7  2  0  0  0  0 
  4  8  1  0  0  0  0 
  5  9  1  0  0  0  0 
 10  6  2  0  0  0  0 
  7 11  1  0  0  0  0 
  8 12  2  0  0  0  0 
  8 13  1  0  0  0  0 
  9 14  2  0  0  0  0 
 14 10  1  0  0  0  0 
 11 15  1  0  0  0  0 
 11 16  2  0  0  0  0 
 12 16  1  0  0  0  0 
 12 17  1  0  0  0  0 
 18 13  2  0  0  0  0 
 17 18  1  0  0  0  0 
M  END
> <Name>
7H-Pyrrolo(2,3-d)pyrimidin-4-amine, 2-methyl-N-(phenylmethyl)-

> <Source>
NIH3DMolFile

> <Tox>
3.474

> <CAS>
1866-43-9

$$$$

  CDK

 16 16  0  0  0  0  0  0  0  0999 V2000
    6.0622    1.9124    0.0000 C   0  0  0  0  0  0  0  0  0  0  0  0
    4.8497    1.2124    0.0000 C   0  0  0  0  0  0  0  0  0  0  0  0
    6.0622    3.3124    0.0000 C   0  0  0  0  0  0  0  0  0  0  0  0
    7.2746    1.2124    0.0000 S   0  0  0  0  0  0  0  0  0  0  0  0
    3.6373    1.9124    0.0000 C   0  0  0  0  0  0  0  0  0  0  0  0
    4.8497    4.0124    0.0000 C   0  0  0  0  0  0  0  0  0  0  0  0
    6.5746    0.0000    0.0000 O   0  0  0  0  0  0  0  0  0  0  0  0
    7.9746    2.4249    0.0000 O   0  0  0  0  0  0  0  0  0  0  0  0
    8.4870    0.5124    0.0000 N   0  0  0  0  0  0  0  0  0  0  0  0
    3.6373    3.3124    0.0000 C   0  0  0  0  0  0  0  0  0  0  0  0
    9.6995    1.2124    0.0000 N   0  0  0  0  0  0  0  0  0  0  0  0
    2.4249    4.0124    0.0000 N   0  0  0  0  0  0  0  0  0  0  0  0
    1.2124    3.3124    0.0000 C   0  0  0  0  0  0  0  0  0  0  0  0
    1.2124    1.9124    0.0000 O   0  0  0  0  0  0  0  0  0  0  0  0
    0.0000    4.0124    0.0000 O   0  0  0  0  0  0  0  0  0  0  0  0
    0.0000    5.4124    0.0000 C   0  0  0  0  0  0  0  0  0  0  0  0
  1  2  1  0  0  0  0 
  1  3  2  0  0  0  0 
  1  4  1  0  0  0  0 
  2  5  2  0  0  0  0 
  6  3  1  0  0  0  0 
  4  7  2  0  0  0  0 
  4  8  2  0  0  0  0 
  4  9  1  0  0  0  0 
  5 10  1  0  0  0  0 
 10  6  2  0  0  0  0 
  9 11  1  0  0  0  0 
 10 12  1  0  0  0  0 
 12 13  1  0  0  0  0 
 13 14  2  0  0  0  0 
 13 15  1  0  0  0  0 
 15 16  1  0  0  0  0 
M  END
> <Name>
Benzenesulfonic acid, 4-((methoxycarbonyl)amino)-, hydrazide (9CI)

> <Source>
Name2DMolFile

> <Tox>
2.846

> <CAS>
1879-26-1

$$$$

  CDK

 18 18  0  0  0  0  0  0  0  0999 V2000
   12.5464    3.6380    0.0000 C   0  0  0  0  0  0  0  0  0  0  0  0
   11.1471    3.6380    0.0000 N   0  0  0  0  0  0  0  0  0  0  0  0
   10.4475    2.4253    0.0000 C   0  0  0  0  0  0  0  0  0  0  0  0
   11.1471    1.2127    0.0000 O   0  0  0  0  0  0  0  0  0  0  0  0
    9.0483    2.4253    0.0000 O   0  0  0  0  0  0  0  0  0  0  0  0
    8.3487    1.2127    0.0000 C   0  0  0  0  0  0  0  0  0  0  0  0
    6.9495    1.2127    0.0000 C   0  0  0  0  0  0  0  0  0  0  0  0
    6.2499    0.0000    0.0000 C   0  0  0  0  0  0  0  0  0  0  0  0
    6.2499    2.4253    0.0000 N   0  0  0  0  0  0  0  0  0  0  0  0
    4.8506    0.0000    0.0000 C   0  0  0  0  0  0  0  0  0  0  0  0
    4.8506    2.4253    0.0000 C   0  0  0  0  0  0  0  0  0  0  0  0
    4.1510    1.2127    0.0000 C   0  0  0  0  0  0  0  0  0  0  0  0
    4.1510    3.6380    0.0000 C   0  0  0  0  0  0  0  0  0  0  0  0
    2.7518    3.6380    0.0000 O   0  0  0  0  0  0  0  0  0  0  0  0
    2.0522    4.8506    0.0000 C   0  0  0  0  0  0  0  0  0  0  0  0
    2.7518    6.0167    0.0000 O   0  0  0  0  0  0  0  0  0  0  0  0
    0.6530    4.8506    0.0000 N   0  0  0  0  0  0  0  0  0  0  0  0
    0.0000    3.6380    0.0000 C   0  0  0  0  0  0  0  0  0  0  0  0
  1  2  1  0  0  0  0 
  2  3  1  0  0  0  0 
  3  4  2  0  0  0  0 
  3  5  1  0  0  0  0 
  5  6  1  0  0  0  0 
  6  7  1  0  0  0  0 
  7  8  1  0  0  0  0 
  7  9  2  0  0  0  0 
  8 10  2  0  0  0  0 
 11  9  1  0  0  0  0 
 10 12  1  0  0  0  0 
 12 11  2  0  0  0  0 
 11 13  1  0  0  0  0 
 13 14  1  0  0  0  0 
 14 15  1  0  0  0  0 
 15 16  2  0  0  0  0 
 15 17  1  0  0  0  0 
 17 18  1  0  0  0  0 
M  END
> <Name>
Carbamic acid, methyl-, 2,6-pyridinediyldimethylene ester

> <Source>
IndexNet2DMolFile

> <Tox>
2.314

> <CAS>
1882-26-4

$$$$

  CDK

 10 10  0  0  0  0  0  0  0  0999 V2000
    2.9989    2.5990    0.0000 C   0  0  0  0  0  0  0  0  0  0  0  0
    2.4991    1.6994    0.0000 C   0  0  0  0  0  0  0  0  0  0  0  0
    3.9985    2.5990    0.0000 C   0  0  0  0  0  0  0  0  0  0  0  0
    2.9989    0.8497    0.0000 C   0  0  0  0  0  0  0  0  0  0  0  0
    1.4994    1.6994    0.0000 O   0  0  0  0  0  0  0  0  0  0  0  0
    4.4983    1.6994    0.0000 C   0  0  0  0  0  0  0  0  0  0  0  0
    3.9985    0.8497    0.0000 C   0  0  0  0  0  0  0  0  0  0  0  0
    0.9996    0.8497    0.0000 C   0  0  0  0  0  0  0  0  0  0  0  0
    0.0000    0.8497    0.0000 O   0  0  0  0  0  0  0  0  0  0  0  0
    1.4994    0.0000    0.0000 Cl  0  0  0  0  0  0  0  0  0  0  0  0
  1  2  2  0  0  0  0 
  3  1  1  0  0  0  0 
  2  4  1  0  0  0  0 
  2  5  1  0  0  0  0 
  6  3  2  0  0  0  0 
  4  7  2  0  0  0  0 
  5  8  1  0  0  0  0 
  7  6  1  0  0  0  0 
  8  9  2  0  0  0  0 
  8 10  1  0  0  0  0 
M  END
> <Name>
Formic acid, chloro-, phenyl ester (8CI)

> <Source>
NIST2DMolFile

> <Tox>
1.949

> <CAS>
1885-14-9

$$$$

  CDK

 13 12  0  0  0  0  0  0  0  0999 V2000
    1.1995    2.5580    0.0000 Cl  0  0  0  0  0  0  0  0  0  0  0  0
    1.7438    1.9319    0.0000 C   0  0  0  0  0  0  0  0  0  0  0  0
    1.5499    1.1237    0.0000 C   0  0  0  0  0  0  0  0  0  0  0  0
    1.9803    0.4109    0.0000 Cl  0  0  0  0  0  0  0  0  0  0  0  0
    0.7182    1.2050    0.0000 S   0  0  0  0  0  0  0  0  0  0  0  0
    0.2943    0.4889    0.0000 P   0  0  0  0  0  0  0  0  0  0  0  0
    1.0177    0.1207    0.0000 O   0  0  0  0  0  0  0  0  0  0  0  0
   -0.5546    0.5579    0.0000 O   0  0  0  0  0  0  0  0  0  0  0  0
   -0.0869   -0.2322    0.0000 O   0  0  0  0  0  0  0  0  0  0  0  0
   -1.3131    0.2400    0.0000 C   0  0  0  0  0  0  0  0  0  0  0  0
    0.5550   -0.7506    0.0000 C   0  0  0  0  0  0  0  0  0  0  0  0
   -1.9295   -0.3379    0.0000 C   0  0  0  0  0  0  0  0  0  0  0  0
   -0.2749   -1.0377    0.0000 C   0  0  0  0  0  0  0  0  0  0  0  0
  2  1  1  0  0  0  0 
  2  3  2  0  0  0  0 
  3  4  1  0  0  0  0 
  3  5  1  0  0  0  0 
  5  6  1  0  0  0  0 
  6  7  2  0  0  0  0 
  6  8  1  0  0  0  0 
  6  9  1  0  0  0  0 
  8 10  1  0  0  0  0 
  9 11  1  0  0  0  0 
 10 12  1  0  0  0  0 
 11 13  1  0  0  0  0 
M  END
> <Name>
Phosphorothioic acid, S-1,2-dichlorovinyl O,O-diethyl ester

> <Source>
Smiles

> <Tox>
3.247

> <CAS>
1885-91-2

$$$$

  CDK

  9  8  0  0  0  0  0  0  0  0999 V2000
   -1.2649    0.2800   -0.1720 C   0  0  0  0  0  0  0  0  0  0  0  0
   -2.6451   -0.2067    0.1077 C   0  0  0  0  0  0  0  0  0  0  0  0
   -0.8997    1.4355   -0.2697 O   0  0  0  0  0  0  0  0  0  0  0  0
   -0.3366   -0.7168   -0.3310 O   0  0  0  0  0  0  0  0  0  0  0  0
   -3.6729    0.8562    0.2780 C   0  0  0  0  0  0  0  0  0  0  0  0
   -2.9535   -1.5023    0.2013 C   0  0  0  0  0  0  0  0  0  0  0  0
    1.0060   -0.3856   -0.6483 C   0  0  0  0  0  0  0  0  0  0  0  0
    1.8134   -0.0031    0.5832 C   0  0  0  0  0  0  0  0  0  0  0  0
    3.5245    0.0411    0.1148 Cl  0  0  0  0  0  0  0  0  0  0  0  0
  1  2  1  0  0  0  0 
  1  3  2  0  0  0  0 
  1  4  1  0  0  0  0 
  2  5  1  0  0  0  0 
  2  6  2  0  0  0  0 
  4  7  1  0  0  0  0 
  7  8  1  0  0  0  0 
  8  9  1  0  0  0  0 
M  END
> <Name>
2-Propenoic acid, 2-methyl-, 2-chloroethyl ester

> <Source>
DougDB3DMolFile

> <Tox>
2.871

> <CAS>
1888-94-4

$$$$

  CDK

 21 23  0  0  0  0  0  0  0  0999 V2000
    4.3856   -4.3799    9.8111 O   0  0  0  0  0  0  0  0  0  0  0  0
    3.7607   -3.9376    8.6859 C   0  0  0  0  0  0  0  0  0  0  0  0
    4.1996   -5.7506   10.1611 C   0  0  0  0  0  0  0  0  0  0  0  0
    3.3548   -2.6064    8.5918 C   0  0  0  0  0  0  0  0  0  0  0  0
    3.5252   -4.8150    7.6275 C   0  0  0  0  0  0  0  0  0  0  0  0
    4.2978   -5.8932   11.6650 C   0  0  0  0  0  0  0  0  0  0  0  0
    2.7136   -2.1526    7.4392 C   0  0  0  0  0  0  0  0  0  0  0  0
    2.8839   -4.3611    6.4749 C   0  0  0  0  0  0  0  0  0  0  0  0
    2.4834   -3.0336    6.3900 C   0  0  0  0  0  0  0  0  0  0  0  0
    1.8233   -2.5667    5.2018 N   0  0  0  0  0  0  0  0  0  0  0  0
    0.4322   -2.5721    5.0743 C   0  0  0  0  0  0  0  0  0  0  0  0
    2.6421   -2.0550    4.1728 C   0  0  0  0  0  0  0  0  0  0  0  0
   -0.2052   -2.0643    4.0645 N   0  0  0  0  0  0  0  0  0  0  0  0
   -0.4266   -3.2495    6.1227 C   0  0  0  0  0  0  0  0  0  0  0  0
    3.8688   -1.9843    4.1890 O   0  0  0  0  0  0  0  0  0  0  0  0
    1.9243   -1.5017    3.0052 C   0  0  0  0  0  0  0  0  0  0  0  0
    0.5295   -1.5080    3.0127 C   0  0  0  0  0  0  0  0  0  0  0  0
    2.6306   -0.9589    1.9252 C   0  0  0  0  0  0  0  0  0  0  0  0
   -0.1564   -0.9626    1.9212 C   0  0  0  0  0  0  0  0  0  0  0  0
    1.9353   -0.4194    0.8440 C   0  0  0  0  0  0  0  0  0  0  0  0
    0.5425   -0.4199    0.8419 C   0  0  0  0  0  0  0  0  0  0  0  0
  1  2  1  0  0  0  0 
  1  3  1  0  0  0  0 
  2  4  2  0  0  0  0 
  2  5  1  0  0  0  0 
  3  6  1  0  0  0  0 
  7  4  1  0  0  0  0 
  8  5  2  0  0  0  0 
  9  7  2  0  0  0  0 
  9  8  1  0  0  0  0 
 10  9  1  0  0  0  0 
 10 11  1  0  0  0  0 
 10 12  1  0  0  0  0 
 13 11  2  0  0  0  0 
 11 14  1  0  0  0  0 
 15 12  2  0  0  0  0 
 16 12  1  0  0  0  0 
 13 17  1  0  0  0  0 
 16 17  1  0  0  0  0 
 16 18  2  0  0  0  0 
 17 19  2  0  0  0  0 
 18 20  1  0  0  0  0 
 19 21  1  0  0  0  0 
 20 21  2  0  0  0  0 
M  END
> <Name>
4(3H)-Quinazolinone, 3-(p-ethoxyphenyl)-2-methyl-

> <Source>
Chemidplus3DMolFile

> <Tox>
1.766

> <CAS>
1897-96-7

$$$$

  CDK

 12 12  0  0  0  0  0  0  0  0999 V2000
    1.8374    2.8187    5.0908 C   0  0  0  0  0  0  0  0  0  0  0  0
    2.7197    3.1099    4.1270 C   0  0  0  0  0  0  0  0  0  0  0  0
    1.5834    3.8083    6.1866 C   0  0  0  0  0  0  0  0  0  0  0  0
    1.0534    1.5641    5.1905 C   0  0  0  0  0  0  0  0  0  0  0  0
    3.0677    2.2385    3.0049 C   0  0  0  0  0  0  0  0  0  0  0  0
    2.4387    3.6349    7.4114 C   0  0  0  0  0  0  0  0  0  0  0  0
    0.7416    4.6785    6.0875 O   0  0  0  0  0  0  0  0  0  0  0  0
    2.0915    1.7383    2.1402 C   0  0  0  0  0  0  0  0  0  0  0  0
    4.4138    1.9371    2.7774 C   0  0  0  0  0  0  0  0  0  0  0  0
    2.4625    0.9395    1.0638 C   0  0  0  0  0  0  0  0  0  0  0  0
    4.7759    1.1317    1.7048 C   0  0  0  0  0  0  0  0  0  0  0  0
    3.8012    0.6322    0.8465 C   0  0  0  0  0  0  0  0  0  0  0  0
  1  2  2  0  0  0  0 
  1  3  1  0  0  0  0 
  1  4  1  0  0  0  0 
  2  5  1  0  0  0  0 
  3  6  1  0  0  0  0 
  3  7  2  0  0  0  0 
  8  5  2  0  0  0  0 
  5  9  1  0  0  0  0 
 10  8  1  0  0  0  0 
  9 11  2  0  0  0  0 
 12 10  2  0  0  0  0 
 11 12  1  0  0  0  0 
M  END
> <Name>
3-Buten-2-one, 3-methyl-4-phenyl-

> <Source>
NIST3DMolFile

> <Tox>
1.592

> <CAS>
1901-26-4

$$$$

  CDK

 14 14  0  0  0  0  0  0  0  0999 V2000
    5.9846   -0.0000    0.0000 Cl  0  0  0  0  0  0  0  0  0  0  0  0
    5.3223   -1.1570    0.0000 C   0  0  0  0  0  0  0  0  0  0  0  0
    5.9846   -2.3061    0.0000 N   0  0  0  0  0  0  0  0  0  0  0  0
    3.9898   -1.1570    0.0000 N   0  0  0  0  0  0  0  0  0  0  0  0
    5.3223   -3.4551    0.0000 C   0  0  0  0  0  0  0  0  0  0  0  0
    3.3275   -2.3061    0.0000 C   0  0  0  0  0  0  0  0  0  0  0  0
    3.9898   -3.4551    0.0000 N   0  0  0  0  0  0  0  0  0  0  0  0
    5.9846   -4.6122    0.0000 N   0  0  0  0  0  0  0  0  0  0  0  0
    1.9949   -2.3061    0.0000 N   0  0  0  0  0  0  0  0  0  0  0  0
    7.3172   -4.6122    0.0000 C   0  0  0  0  0  0  0  0  0  0  0  0
    1.3326   -3.4551    0.0000 C   0  0  0  0  0  0  0  0  0  0  0  0
    7.9795   -5.7612    0.0000 C   0  0  0  0  0  0  0  0  0  0  0  0
    1.9949   -4.6122    0.0000 C   0  0  0  0  0  0  0  0  0  0  0  0
    0.0000   -3.4551    0.0000 C   0  0  0  0  0  0  0  0  0  0  0  0
  1  2  1  0  0  0  0 
  2  3  2  0  0  0  0 
  2  4  1  0  0  0  0 
  3  5  1  0  0  0  0 
  6  4  2  0  0  0  0 
  5  7  2  0  0  0  0 
  5  8  1  0  0  0  0 
  7  6  1  0  0  0  0 
  6  9  1  0  0  0  0 
  8 10  1  0  0  0  0 
  9 11  1  0  0  0  0 
 10 12  1  0  0  0  0 
 11 13  1  0  0  0  0 
 11 14  1  0  0  0  0 
M  END
> <Name>
1,3,5-Triazine-2,4-diamine, 6-chloro-N-ethyl-N'-(1-methylethyl)-

> <Source>
DSSTox2DMolFile

> <Tox>
2.506

> <CAS>
1912-24-9

$$$$

  CDK

 13 13  0  0  0  0  0  0  0  0999 V2000
    3.4803   -1.9978    0.0000 C   0  0  0  0  0  0  0  0  0  0  0  0
    2.3395   -1.3493    0.0000 N   0  0  0  0  0  0  0  0  0  0  0  0
    3.4803   -3.3297    0.0000 C   0  0  0  0  0  0  0  0  0  0  0  0
    4.6327   -1.3377    0.0000 C   0  0  0  0  0  0  0  0  0  0  0  0
    1.1813   -1.9978    0.0000 C   0  0  0  0  0  0  0  0  0  0  0  0
    2.3395   -3.9783    0.0000 C   0  0  0  0  0  0  0  0  0  0  0  0
    4.6327   -4.0015    0.0000 Cl  0  0  0  0  0  0  0  0  0  0  0  0
    4.6327   -0.0000    0.0000 O   0  0  0  0  0  0  0  0  0  0  0  0
    5.7908   -1.9805    0.0000 O   0  0  0  0  0  0  0  0  0  0  0  0
    1.1813   -3.3297    0.0000 C   0  0  0  0  0  0  0  0  0  0  0  0
    0.0000   -1.3493    0.0000 Cl  0  0  0  0  0  0  0  0  0  0  0  0
    2.3395   -5.3102    0.0000 N   0  0  0  0  0  0  0  0  0  0  0  0
    0.0116   -3.9899    0.0000 Cl  0  0  0  0  0  0  0  0  0  0  0  0
  1  2  1  0  0  0  0 
  1  3  2  0  0  0  0 
  1  4  1  0  0  0  0 
  2  5  2  0  0  0  0 
  3  6  1  0  0  0  0 
  3  7  1  0  0  0  0 
  4  8  2  0  0  0  0 
  4  9  1  0  0  0  0 
 10  5  1  0  0  0  0 
  5 11  1  0  0  0  0 
 10  6  2  0  0  0  0 
  6 12  1  0  0  0  0 
 10 13  1  0  0  0  0 
M  END
> <Name>
2-Pyridinecarboxylic acid, 4-amino-3,5,6-trichloro-

> <Source>
DSSTox2DMolFile

> <Tox>
1.469

> <CAS>
1918-02-1

$$$$

  CDK

 14 14  0  0  0  0  0  0  0  0999 V2000
    3.4497   -2.0272    0.0000 N   0  0  0  0  0  0  0  0  0  0  0  0
    4.6073   -2.6895    0.0000 C   0  0  0  0  0  0  0  0  0  0  0  0
    2.2979   -2.6895    0.0000 C   0  0  0  0  0  0  0  0  0  0  0  0
    3.4497   -0.6969    0.0000 C   0  0  0  0  0  0  0  0  0  0  0  0
    4.6073   -4.0199    0.0000 O   0  0  0  0  0  0  0  0  0  0  0  0
    5.7592   -2.0272    0.0000 C   0  0  0  0  0  0  0  0  0  0  0  0
    2.2979   -4.0199    0.0000 C   0  0  0  0  0  0  0  0  0  0  0  0
    1.1518   -2.0272    0.0000 C   0  0  0  0  0  0  0  0  0  0  0  0
    4.5900   -0.0230    0.0000 C   0  0  0  0  0  0  0  0  0  0  0  0
    2.3094   -0.0000    0.0000 C   0  0  0  0  0  0  0  0  0  0  0  0
    5.7592   -0.6969    0.0000 Cl  0  0  0  0  0  0  0  0  0  0  0  0
    1.1518   -4.6937    0.0000 C   0  0  0  0  0  0  0  0  0  0  0  0
    0.0000   -2.6895    0.0000 C   0  0  0  0  0  0  0  0  0  0  0  0
    0.0000   -4.0199    0.0000 C   0  0  0  0  0  0  0  0  0  0  0  0
  1  2  1  0  0  0  0 
  1  3  1  0  0  0  0 
  1  4  1  0  0  0  0 
  2  5  2  0  0  0  0 
  2  6  1  0  0  0  0 
  3  7  2  0  0  0  0 
  3  8  1  0  0  0  0 
  4  9  1  0  0  0  0 
  4 10  1  0  0  0  0 
  6 11  1  0  0  0  0 
  7 12  1  0  0  0  0 
  8 13  2  0  0  0  0 
 12 14  2  0  0  0  0 
 13 14  1  0  0  0  0 
M  END
> <Name>
Acetamide, 2-chloro-N-(1-methylethyl)-N-phenyl-

> <Source>
DSSTox2DMolFile

> <Tox>
2.474

> <CAS>
1918-16-7

$$$$

  CDK

 13 13  0  0  0  0  0  0  0  0999 V2000
    3.2002   -0.3348   -0.1286 C   0  0  0  0  0  0  0  0  0  0  0  0
    2.1277   -1.1126   -0.6244 N   0  0  0  0  0  0  0  0  0  0  0  0
    4.3649   -0.6785   -0.2706 O   0  0  0  0  0  0  0  0  0  0  0  0
    2.8477    0.8312    0.4894 O   0  0  0  0  0  0  0  0  0  0  0  0
    0.7350   -0.9125   -0.3268 C   0  0  0  0  0  0  0  0  0  0  0  0
    3.8951    1.6628    0.9477 C   0  0  0  0  0  0  0  0  0  0  0  0
    0.1330    0.3406   -0.4780 C   0  0  0  0  0  0  0  0  0  0  0  0
   -0.0369   -2.0255    0.0428 C   0  0  0  0  0  0  0  0  0  0  0  0
   -1.2321    0.4719   -0.2387 C   0  0  0  0  0  0  0  0  0  0  0  0
   -1.3980   -1.8828    0.2705 C   0  0  0  0  0  0  0  0  0  0  0  0
   -1.9981   -0.6326    0.1346 C   0  0  0  0  0  0  0  0  0  0  0  0
   -1.9641    1.9745   -0.4089 Cl  0  0  0  0  0  0  0  0  0  0  0  0
   -3.6435   -0.4558    0.4175 Cl  0  0  0  0  0  0  0  0  0  0  0  0
  1  2  1  0  0  0  0 
  1  3  2  0  0  0  0 
  1  4  1  0  0  0  0 
  2  5  1  0  0  0  0 
  4  6  1  0  0  0  0 
  5  7  1  0  0  0  0 
  5  8  2  0  0  0  0 
  7  9  2  0  0  0  0 
 10  8  1  0  0  0  0 
  9 11  1  0  0  0  0 
  9 12  1  0  0  0  0 
 11 10  2  0  0  0  0 
 11 13  1  0  0  0  0 
M  END
> <Name>
Carbanilic acid, 3,4-dichloro-, methyl ester

> <Source>
DougDB3DMolFile

> <Tox>
2.625

> <CAS>
1918-18-9

$$$$

  CDK

 13 12  0  0  0  0  0  0  0  0999 V2000
    2.3038   -1.3283    0.0000 C   0  0  0  0  0  0  0  0  0  0  0  0
    3.4453   -1.9856    0.0000 N   0  0  0  0  0  0  0  0  0  0  0  0
    2.3038   -0.0000    0.0000 O   0  0  0  0  0  0  0  0  0  0  0  0
    1.1415   -1.9994    0.0000 S   0  0  0  0  0  0  0  0  0  0  0  0
    4.6007   -1.3145    0.0000 C   0  0  0  0  0  0  0  0  0  0  0  0
    3.4453   -3.3208    0.0000 C   0  0  0  0  0  0  0  0  0  0  0  0
    1.1415   -3.3277    0.0000 C   0  0  0  0  0  0  0  0  0  0  0  0
    5.7630   -1.9856    0.0000 C   0  0  0  0  0  0  0  0  0  0  0  0
    2.3038   -3.9780    0.0000 C   0  0  0  0  0  0  0  0  0  0  0  0
    0.0000   -3.9919    0.0000 C   0  0  0  0  0  0  0  0  0  0  0  0
    6.9183   -1.3145    0.0000 C   0  0  0  0  0  0  0  0  0  0  0  0
    2.3038   -5.3063    0.0000 C   0  0  0  0  0  0  0  0  0  0  0  0
    0.0000   -5.3202    0.0000 C   0  0  0  0  0  0  0  0  0  0  0  0
  1  2  1  0  0  0  0 
  1  3  2  0  0  0  0 
  1  4  1  0  0  0  0 
  2  5  1  0  0  0  0 
  2  6  1  0  0  0  0 
  4  7  1  0  0  0  0 
  5  8  1  0  0  0  0 
  6  9  1  0  0  0  0 
  7 10  1  0  0  0  0 
  8 11  1  0  0  0  0 
  9 12  1  0  0  0  0 
 10 13  1  0  0  0  0 
M  END
> <Name>
Carbamothioic acid, dipropyl-, S-propyl ester (9CI)

> <Source>
DSSTox2DMolFile

> <Tox>
2.229

> <CAS>
1929-77-7

$$$$

  CDK

 16 16  0  0  0  0  0  0  0  0999 V2000
   -0.3565   -2.8795    0.0000 Cl  0  0  0  0  0  0  0  0  0  0  0  0
   -0.3736   -2.0789    0.0000 C   0  0  0  0  0  0  0  0  0  0  0  0
    0.3899   -1.7498    0.0000 C   0  0  0  0  0  0  0  0  0  0  0  0
   -1.0391   -1.5867    0.0000 C   0  0  0  0  0  0  0  0  0  0  0  0
    1.2135   -2.0643    0.0000 C   0  0  0  0  0  0  0  0  0  0  0  0
    0.4696   -0.9149    0.0000 C   0  0  0  0  0  0  0  0  0  0  0  0
   -0.9615   -0.7719    0.0000 C   0  0  0  0  0  0  0  0  0  0  0  0
   -0.2068   -0.4465    0.0000 C   0  0  0  0  0  0  0  0  0  0  0  0
   -0.4063    0.3625    0.0000 S   0  0  0  0  0  0  0  0  0  0  0  0
    0.1179    1.0277    0.0000 P   0  0  0  0  0  0  0  0  0  0  0  0
    0.2695    1.8316    0.0000 S   0  0  0  0  0  0  0  0  0  0  0  0
    0.8765    0.6599    0.0000 C   0  0  0  0  0  0  0  0  0  0  0  0
   -0.7126    1.0373    0.0000 O   0  0  0  0  0  0  0  0  0  0  0  0
    0.6908   -0.1620    0.0000 C   0  0  0  0  0  0  0  0  0  0  0  0
   -0.9590    1.8295    0.0000 C   0  0  0  0  0  0  0  0  0  0  0  0
   -1.3436    2.5750    0.0000 C   0  0  0  0  0  0  0  0  0  0  0  0
  1  2  1  0  0  0  0 
  2  3  1  0  0  0  0 
  2  4  2  0  0  0  0 
  3  5  1  0  0  0  0 
  3  6  2  0  0  0  0 
  7  4  1  0  0  0  0 
  6  8  1  0  0  0  0 
  8  7  2  0  0  0  0 
  8  9  1  0  0  0  0 
  9 10  1  0  0  0  0 
 10 11  2  0  0  0  0 
 10 12  1  0  0  0  0 
 10 13  1  0  0  0  0 
 12 14  1  0  0  0  0 
 13 15  1  0  0  0  0 
 15 16  1  0  0  0  0 
M  END
> <Name>
Phosphonodithioic acid, ethyl-, S-(4-chloro-3-methylphenyl) O-ethyl ester

> <Source>
Smiles

> <Tox>
4.836

> <CAS>
1942-78-5

$$$$

  CDK

 11 10  0  0  0  0  0  0  0  0999 V2000
    1.1877    0.3078   -0.0653 C   0  0  0  0  0  0  0  0  0  0  0  0
    0.0390   -0.2514   -0.4690 C   0  0  0  0  0  0  0  0  0  0  0  0
    2.3222   -0.4717   -0.2078 O   0  0  0  0  0  0  0  0  0  0  0  0
   -1.2430    0.5088   -0.3943 C   0  0  0  0  0  0  0  0  0  0  0  0
    3.5515    0.0412    0.1365 C   0  0  0  0  0  0  0  0  0  0  0  0
   -2.2436   -0.4313    0.0064 O   0  0  0  0  0  0  0  0  0  0  0  0
    4.6523   -0.9593   -0.0689 C   0  0  0  0  0  0  0  0  0  0  0  0
    3.6447    1.1780    0.5482 O   0  0  0  0  0  0  0  0  0  0  0  0
   -3.5364   -0.0030    0.0943 C   0  0  0  0  0  0  0  0  0  0  0  0
   -4.4785   -1.0868    0.5344 C   0  0  0  0  0  0  0  0  0  0  0  0
   -3.8040    1.1521   -0.1733 O   0  0  0  0  0  0  0  0  0  0  0  0
  1  2  2  0  0  0  0 
  1  3  1  0  0  0  0 
  2  4  1  0  0  0  0 
  5  3  1  0  0  0  0 
  4  6  1  0  0  0  0 
  5  7  1  0  0  0  0 
  5  8  2  0  0  0  0 
  9  6  1  0  0  0  0 
  9 10  1  0  0  0  0 
  9 11  2  0  0  0  0 
M  END
> <Name>
1-Propene-1,3-diol, diacetate

> <Source>
DougDB3DMolFile

> <Tox>
3.023

> <CAS>
1945-91-1

$$$$

  CDK

 23 26  0  0  0  0  0  0  0  0999 V2000
    0.7472   -6.1472    0.0000 C   0  0  0  0  0  0  0  0  0  0  0  0
    0.0000   -5.0513    0.0000 C   0  0  0  0  0  0  0  0  0  0  0  0
    2.0723   -6.0476    0.0000 C   0  0  0  0  0  0  0  0  0  0  0  0
    0.5779   -3.8557    0.0000 C   0  0  0  0  0  0  0  0  0  0  0  0
    2.6502   -4.8520    0.0000 C   0  0  0  0  0  0  0  0  0  0  0  0
    1.9029   -3.7561    0.0000 C   0  0  0  0  0  0  0  0  0  0  0  0
    3.9553   -4.9317    0.0000 N   0  0  0  0  0  0  0  0  0  0  0  0
    2.2915   -2.4808    0.0000 O   0  0  0  0  0  0  0  0  0  0  0  0
    4.9018   -3.9952    0.0000 C   0  0  0  0  0  0  0  0  0  0  0  0
    3.5369   -1.9926    0.0000 C   0  0  0  0  0  0  0  0  0  0  0  0
    6.1671   -4.3837    0.0000 N   0  0  0  0  0  0  0  0  0  0  0  0
    4.6826   -2.6601    0.0000 C   0  0  0  0  0  0  0  0  0  0  0  0
    3.5369   -0.6675    0.0000 C   0  0  0  0  0  0  0  0  0  0  0  0
    7.1136   -3.4472    0.0000 C   0  0  0  0  0  0  0  0  0  0  0  0
    6.4461   -5.6590    0.0000 C   0  0  0  0  0  0  0  0  0  0  0  0
    5.8384   -1.9926    0.0000 C   0  0  0  0  0  0  0  0  0  0  0  0
    4.6826   -0.0000    0.0000 C   0  0  0  0  0  0  0  0  0  0  0  0
    8.3989   -3.8557    0.0000 C   0  0  0  0  0  0  0  0  0  0  0  0
    7.7313   -6.0775    0.0000 C   0  0  0  0  0  0  0  0  0  0  0  0
    5.8384   -0.6675    0.0000 C   0  0  0  0  0  0  0  0  0  0  0  0
    8.6778   -5.1310    0.0000 N   0  0  0  0  0  0  0  0  0  0  0  0
    6.9841   -0.0000    0.0000 Cl  0  0  0  0  0  0  0  0  0  0  0  0
    9.9631   -5.5395    0.0000 C   0  0  0  0  0  0  0  0  0  0  0  0
  1  2  2  0  0  0  0 
  1  3  1  0  0  0  0 
  2  4  1  0  0  0  0 
  5  3  2  0  0  0  0 
  4  6  2  0  0  0  0 
  6  5  1  0  0  0  0 
  5  7  1  0  0  0  0 
  6  8  1  0  0  0  0 
  7  9  2  0  0  0  0 
 10  8  1  0  0  0  0 
  9 11  1  0  0  0  0 
  9 12  1  0  0  0  0 
 12 10  2  0  0  0  0 
 10 13  1  0  0  0  0 
 11 14  1  0  0  0  0 
 11 15  1  0  0  0  0 
 12 16  1  0  0  0  0 
 13 17  2  0  0  0  0 
 14 18  1  0  0  0  0 
 19 15  1  0  0  0  0 
 20 16  2  0  0  0  0 
 17 20  1  0  0  0  0 
 18 21  1  0  0  0  0 
 21 19  1  0  0  0  0 
 20 22  1  0  0  0  0 
 21 23  1  0  0  0  0 
M  END
> <Name>
Dibenz(b,f)(1,4)oxazepine, 2-chloro-11-(4-methyl-1-piperazinyl)-

> <Source>
DSSTox2DMolFile

> <Tox>
3.337

> <CAS>
1977-10-2

$$$$

  CDK

 10 10  0  0  0  0  0  0  0  0999 V2000
    3.4502    0.8500    0.0000 C   0  0  0  0  0  0  0  0  0  0  0  0
    2.4501    0.8500    0.0000 C   0  0  0  0  0  0  0  0  0  0  0  0
    3.9502    1.7501    0.0000 C   0  0  0  0  0  0  0  0  0  0  0  0
    2.0001    1.7501    0.0000 C   0  0  0  0  0  0  0  0  0  0  0  0
    3.4502    2.6001    0.0000 C   0  0  0  0  0  0  0  0  0  0  0  0
    4.9503    1.7501    0.0000 Br  0  0  0  0  0  0  0  0  0  0  0  0
    2.4501    2.6001    0.0000 C   0  0  0  0  0  0  0  0  0  0  0  0
    1.0001    1.7501    0.0000 N   0  0  0  0  0  0  0  0  0  0  0  0
    0.5000    0.8500    0.0000 C   0  0  0  0  0  0  0  0  0  0  0  0
    0.0000    0.0000    0.0000 S   0  0  0  0  0  0  0  0  0  0  0  0
  2  1  2  0  0  0  0 
  1  3  1  0  0  0  0 
  4  2  1  0  0  0  0 
  3  5  2  0  0  0  0 
  3  6  1  0  0  0  0 
  7  4  2  0  0  0  0 
  4  8  1  0  0  0  0 
  5  7  1  0  0  0  0 
  8  9  2  0  0  0  0 
  9 10  2  0  0  0  0 
M  END
> <Name>
Isothiocyanic acid, p-bromophenyl ester

> <Source>
NIST2DMolFile

> <Tox>
2.729

> <CAS>
1985-12-2

$$$$

  CDK

 15 17  0  0  0  0  0  0  0  0999 V2000
    3.5163    3.0139    0.0000 O   0  0  0  0  0  0  0  0  0  0  0  0
    3.5163    2.0093    0.0000 C   0  0  0  0  0  0  0  0  0  0  0  0
    2.6121    1.5070    0.0000 C   0  0  0  0  0  0  0  0  0  0  0  0
    4.3702    1.5070    0.0000 C   0  0  0  0  0  0  0  0  0  0  0  0
    2.6121    0.5023    0.0000 C   0  0  0  0  0  0  0  0  0  0  0  0
    1.7581    2.0093    0.0000 O   0  0  0  0  0  0  0  0  0  0  0  0
    4.3702    0.5023    0.0000 C   0  0  0  0  0  0  0  0  0  0  0  0
    5.3246    1.8084    0.0000 O   0  0  0  0  0  0  0  0  0  0  0  0
    3.5163    0.0000    0.0000 C   0  0  0  0  0  0  0  0  0  0  0  0
    1.7581    0.0000    0.0000 C   0  0  0  0  0  0  0  0  0  0  0  0
    0.9042    1.5070    0.0000 C   0  0  0  0  0  0  0  0  0  0  0  0
    5.2744    0.2009    0.0000 C   0  0  0  0  0  0  0  0  0  0  0  0
    5.8772    1.0046    0.0000 C   0  0  0  0  0  0  0  0  0  0  0  0
    0.9042    0.5023    0.0000 C   0  0  0  0  0  0  0  0  0  0  0  0
    0.0000    2.0093    0.0000 O   0  0  0  0  0  0  0  0  0  0  0  0
  1  2  1  0  0  0  0 
  3  2  2  0  0  0  0 
  2  4  1  0  0  0  0 
  5  3  1  0  0  0  0 
  6  3  1  0  0  0  0 
  7  4  2  0  0  0  0 
  4  8  1  0  0  0  0 
  9  5  2  0  0  0  0 
  5 10  1  0  0  0  0 
 11  6  1  0  0  0  0 
  7  9  1  0  0  0  0 
 12  7  1  0  0  0  0 
  8 13  1  0  0  0  0 
 10 14  2  0  0  0  0 
 14 11  1  0  0  0  0 
 11 15  2  0  0  0  0 
 13 12  2  0  0  0  0 
M  END
> <Name>
5-Benzofuranacrylic acid, 6,7-dihydroxy-, gamma-lactone (7CI)

> <Source>
NIST2DMolFile

> <Tox>
2.624

> <CAS>
2009-24-7

$$$$

  CDK

 15 15  0  0  0  0  0  0  0  0999 V2000
    4.5507   -3.3305    0.0000 C   0  0  0  0  0  0  0  0  0  0  0  0
    5.7159   -4.0094    0.0000 O   0  0  0  0  0  0  0  0  0  0  0  0
    4.5507   -2.0001    0.0000 C   0  0  0  0  0  0  0  0  0  0  0  0
    3.3947   -4.0094    0.0000 C   0  0  0  0  0  0  0  0  0  0  0  0
    6.8536   -3.3305    0.0000 C   0  0  0  0  0  0  0  0  0  0  0  0
    3.3947   -1.3395    0.0000 C   0  0  0  0  0  0  0  0  0  0  0  0
    2.2387   -3.3305    0.0000 C   0  0  0  0  0  0  0  0  0  0  0  0
    6.8536   -2.0001    0.0000 O   0  0  0  0  0  0  0  0  0  0  0  0
    8.0188   -4.0094    0.0000 N   0  0  0  0  0  0  0  0  0  0  0  0
    2.2387   -2.0001    0.0000 C   0  0  0  0  0  0  0  0  0  0  0  0
    3.3947   -0.0000    0.0000 C   0  0  0  0  0  0  0  0  0  0  0  0
    1.0826   -4.0094    0.0000 C   0  0  0  0  0  0  0  0  0  0  0  0
    9.1748   -3.3305    0.0000 C   0  0  0  0  0  0  0  0  0  0  0  0
    1.0826   -1.3395    0.0000 S   0  0  0  0  0  0  0  0  0  0  0  0
    0.0000   -1.9451    0.0000 C   0  0  0  0  0  0  0  0  0  0  0  0
  1  2  1  0  0  0  0 
  1  3  2  0  0  0  0 
  1  4  1  0  0  0  0 
  2  5  1  0  0  0  0 
  3  6  1  0  0  0  0 
  4  7  2  0  0  0  0 
  5  8  2  0  0  0  0 
  5  9  1  0  0  0  0 
  6 10  2  0  0  0  0 
  6 11  1  0  0  0  0 
  7 10  1  0  0  0  0 
  7 12  1  0  0  0  0 
  9 13  1  0  0  0  0 
 10 14  1  0  0  0  0 
 14 15  1  0  0  0  0 
M  END
> <Name>
Phenol, 3,5-dimethyl-4-(methylthio)-, methylcarbamate (9CI)

> <Source>
DSSTox2DMolFile

> <Tox>
4.052

> <CAS>
2032-65-7

$$$$

  CDK

 13 13  0  0  0  0  0  0  0  0999 V2000
    0.8910   -0.2398    0.0000 O   0  0  0  0  0  0  0  0  0  0  0  0
    0.0660   -0.2398    0.0000 C   0  0  0  0  0  0  0  0  0  0  0  0
    0.0660    0.5852    0.0000 C   0  0  0  0  0  0  0  0  0  0  0  0
    0.0660   -1.0648    0.0000 C   0  0  0  0  0  0  0  0  0  0  0  0
    0.7805    0.9977    0.0000 C   0  0  0  0  0  0  0  0  0  0  0  0
   -0.6485    0.9977    0.0000 C   0  0  0  0  0  0  0  0  0  0  0  0
    0.8910   -1.0648    0.0000 O   0  0  0  0  0  0  0  0  0  0  0  0
    0.0660   -1.8898    0.0000 C   0  0  0  0  0  0  0  0  0  0  0  0
   -0.7590   -1.0648    0.0000 C   0  0  0  0  0  0  0  0  0  0  0  0
    0.7805    1.8227    0.0000 C   0  0  0  0  0  0  0  0  0  0  0  0
   -0.6485    1.8227    0.0000 C   0  0  0  0  0  0  0  0  0  0  0  0
   -1.5840   -1.0648    0.0000 C   0  0  0  0  0  0  0  0  0  0  0  0
    0.0660    2.2352    0.0000 C   0  0  0  0  0  0  0  0  0  0  0  0
  1  2  1  0  0  0  0 
  2  3  1  0  0  0  0 
  2  4  1  0  0  0  0 
  3  5  1  0  0  0  0 
  3  6  2  0  0  0  0 
  4  7  1  0  0  0  0 
  4  8  1  0  0  0  0 
  4  9  1  0  0  0  0 
  5 10  2  0  0  0  0 
 11  6  1  0  0  0  0 
  9 12  3  0  0  0  0 
 10 13  1  0  0  0  0 
 13 11  2  0  0  0  0 
M  END
> <Name>
3-Butyne-1,2-diol, 2-methyl-1-phenyl-

> <Source>
Smiles

> <Tox>
2.383

> <CAS>
2033-94-5

$$$$

  CDK

 12 13  0  0  0  0  0  0  0  0999 V2000
    0.0000    0.0000    0.0000 O   0  0  0  0  0  0  0  0  0  0  0  0
   -0.1600    1.1800    0.0600 C   0  0  0  0  0  0  0  0  0  0  0  0
   -1.4800    1.9000   -0.0400 C   0  0  0  0  0  0  0  0  0  0  0  0
    0.9600    1.9800    0.2400 N   0  0  0  0  0  0  0  0  0  0  0  0
   -1.5000    3.3000    0.0400 C   0  0  0  0  0  0  0  0  0  0  0  0
   -2.6600    1.1800   -0.2400 C   0  0  0  0  0  0  0  0  0  0  0  0
    0.8600    3.3600    0.3200 C   0  0  0  0  0  0  0  0  0  0  0  0
   -2.7200    4.0000   -0.0600 C   0  0  0  0  0  0  0  0  0  0  0  0
   -0.3400    3.9600    0.2200 O   0  0  0  0  0  0  0  0  0  0  0  0
   -3.8800    1.8800   -0.3400 C   0  0  0  0  0  0  0  0  0  0  0  0
    1.8800    4.0000    0.4800 O   0  0  0  0  0  0  0  0  0  0  0  0
   -3.9000    3.2800   -0.2400 C   0  0  0  0  0  0  0  0  0  0  0  0
  1  2  2  0  0  0  0 
  2  3  1  0  0  0  0 
  2  4  1  0  0  0  0 
  3  5  2  0  0  0  0 
  3  6  1  0  0  0  0 
  7  4  1  0  0  0  0 
  5  8  1  0  0  0  0 
  5  9  1  0  0  0  0 
 10  6  2  0  0  0  0 
  9  7  1  0  0  0  0 
  7 11  2  0  0  0  0 
  8 12  2  0  0  0  0 
 12 10  1  0  0  0  0 
M  END
> <Name>
2H-1,3-Benzoxazine-2,4(3H)-dione

> <Source>
NIH3DMolFile

> <Tox>
2.337

> <CAS>
2037-95-8

$$$$

  CDK

  9  9  0  0  0  0  0  0  0  0999 V2000
    3.9905   -2.3049    0.0000 C   0  0  0  0  0  0  0  0  0  0  0  0
    4.6563   -3.4550    0.0000 C   0  0  0  0  0  0  0  0  0  0  0  0
    2.6588   -2.3049    0.0000 C   0  0  0  0  0  0  0  0  0  0  0  0
    1.9976   -3.4550    0.0000 C   0  0  0  0  0  0  0  0  0  0  0  0
    1.9976   -1.1501    0.0000 C   0  0  0  0  0  0  0  0  0  0  0  0
    0.6659   -3.4550    0.0000 C   0  0  0  0  0  0  0  0  0  0  0  0
    0.6659   -1.1501    0.0000 C   0  0  0  0  0  0  0  0  0  0  0  0
    2.6588   -0.0000    0.0000 Cl  0  0  0  0  0  0  0  0  0  0  0  0
    0.0000   -2.3049    0.0000 C   0  0  0  0  0  0  0  0  0  0  0  0
  1  2  2  0  0  0  0 
  1  3  1  0  0  0  0 
  3  4  2  0  0  0  0 
  3  5  1  0  0  0  0 
  4  6  1  0  0  0  0 
  7  5  2  0  0  0  0 
  5  8  1  0  0  0  0 
  6  9  2  0  0  0  0 
  9  7  1  0  0  0  0 
M  END
> <Name>
Benzene, 1-chloro-2-ethenyl- (9CI)

> <Source>
DSSTox2DMolFile

> <Tox>
1.527

> <CAS>
2039-87-4

$$$$

  CDK

 13 12  0  0  0  0  0  0  0  0999 V2000
    1.9789    1.2709   -1.9311 S   0  0  0  0  0  0  0  0  0  0  0  0
    2.6560    0.9051    0.0525 P   0  0  0  0  0  0  0  0  0  0  0  0
    2.5097   -0.1618   -2.8907 C   0  0  0  0  0  0  0  0  0  0  0  0
    2.4944    2.3402    1.3807 S   0  0  0  0  0  0  0  0  0  0  0  0
    1.9453   -0.4816    0.5488 O   0  0  0  0  0  0  0  0  0  0  0  0
    4.1881    0.3452   -0.0621 O   0  0  0  0  0  0  0  0  0  0  0  0
    2.0672    0.0159   -4.3215 C   0  0  0  0  0  0  0  0  0  0  0  0
    0.5506   -0.5219    0.8012 C   0  0  0  0  0  0  0  0  0  0  0  0
    5.2369    1.2055   -0.4754 C   0  0  0  0  0  0  0  0  0  0  0  0
    2.4221    0.9686   -5.0124 O   0  0  0  0  0  0  0  0  0  0  0  0
    1.2262   -0.9788   -4.7665 N   0  0  0  0  0  0  0  0  0  0  0  0
    0.1697   -1.9187    1.2432 C   0  0  0  0  0  0  0  0  0  0  0  0
    6.5355    0.4277   -0.4909 C   0  0  0  0  0  0  0  0  0  0  0  0
  1  2  1  0  0  0  0 
  1  3  1  0  0  0  0 
  4  2  2  0  0  0  0 
  2  5  1  0  0  0  0 
  2  6  1  0  0  0  0 
  3  7  1  0  0  0  0 
  5  8  1  0  0  0  0 
  6  9  1  0  0  0  0 
 10  7  2  0  0  0  0 
 11  7  1  0  0  0  0 
  8 12  1  0  0  0  0 
  9 13  1  0  0  0  0 
M  END
> <Name>
Phosphorodithioic acid, O,O-diethyl ester, S-ester with 2-mercaptoacetamide

> <Source>
Chemidplus3DMolFile

> <Tox>
4.386

> <CAS>
2047-14-5

$$$$

  CDK

 30 31  0  0  0  0  0  0  0  0999 V2000
    0.0000    1.4259    0.0000 N   0  0  0  0  0  0  0  0  0  0  0  0
    1.2162    2.1388    0.0000 C   0  0  0  0  0  0  0  0  0  0  0  0
    2.4323    1.4259    0.0000 N   0  0  0  0  0  0  0  0  0  0  0  0
    1.2162    3.5646    0.0000 N   0  0  0  0  0  0  0  0  0  0  0  0
    3.6485    2.1388    0.0000 C   0  0  0  0  0  0  0  0  0  0  0  0
    2.4323    0.0000    0.0000 C   0  0  0  0  0  0  0  0  0  0  0  0
    4.8646    1.4259    0.0000 C   0  0  0  0  0  0  0  0  0  0  0  0
    6.1227    2.1388    0.0000 C   0  0  0  0  0  0  0  0  0  0  0  0
    7.3389    1.4259    0.0000 C   0  0  0  0  0  0  0  0  0  0  0  0
    6.1227    3.5646    0.0000 N   0  0  0  0  0  0  0  0  0  0  0  0
    8.5550    2.1388    0.0000 C   0  0  0  0  0  0  0  0  0  0  0  0
    9.7712    1.4259    0.0000 N   0  0  0  0  0  0  0  0  0  0  0  0
    8.5550    3.5646    0.0000 O   0  0  0  0  0  0  0  0  0  0  0  0
   11.0712    1.4678    0.0000 C   0  0  0  0  0  0  0  0  0  0  0  0
   11.7842    0.2516    0.0000 C   0  0  0  0  0  0  0  0  0  0  0  0
   11.7422    2.6839    0.0000 C   0  0  0  0  0  0  0  0  0  0  0  0
   13.2100    0.2516    0.0000 C   0  0  0  0  0  0  0  0  0  0  0  0
   13.1681    2.7259    0.0000 O   0  0  0  0  0  0  0  0  0  0  0  0
   11.0293    3.9001    0.0000 C   0  0  0  0  0  0  0  0  0  0  0  0
   13.8810    1.5097    0.0000 C   0  0  0  0  0  0  0  0  0  0  0  0
   11.6583    4.9905    0.0000 O   0  0  0  0  0  0  0  0  0  0  0  0
    9.7712    3.9001    0.0000 O   0  0  0  0  0  0  0  0  0  0  0  0
   15.3068    1.5097    0.0000 N   0  0  0  0  0  0  0  0  0  0  0  0
   16.0198    0.2936    0.0000 C   0  0  0  0  0  0  0  0  0  0  0  0
   16.0198    2.7259    0.0000 C   0  0  0  0  0  0  0  0  0  0  0  0
   17.4037    0.2936    0.0000 C   0  0  0  0  0  0  0  0  0  0  0  0
   17.4037    2.7259    0.0000 N   0  0  0  0  0  0  0  0  0  0  0  0
   15.3068    3.9420    0.0000 O   0  0  0  0  0  0  0  0  0  0  0  0
   18.1166    1.5097    0.0000 C   0  0  0  0  0  0  0  0  0  0  0  0
   19.5424    1.4678    0.0000 N   0  0  0  0  0  0  0  0  0  0  0  0
  1  2  1  0  0  0  0 
  2  3  1  0  0  0  0 
  2  4  2  0  0  0  0 
  3  5  1  0  0  0  0 
  3  6  1  0  0  0  0 
  5  7  1  0  0  0  0 
  7  8  1  0  0  0  0 
  8  9  1  0  0  0  0 
  8 10  1  6  0  0  0 
  9 11  1  0  0  0  0 
 11 12  1  0  0  0  0 
 11 13  2  0  0  0  0 
 14 12  1  6  0  0  0 
 14 15  1  0  0  0  0 
 14 16  1  0  0  0  0 
 15 17  2  0  0  0  0 
 18 16  1  0  0  0  0 
 16 19  1  1  0  0  0 
 17 20  1  0  0  0  0 
 20 18  1  0  0  0  0 
 19 21  1  0  0  0  0 
 19 22  2  0  0  0  0 
 20 23  1  1  0  0  0 
 23 24  1  0  0  0  0 
 23 25  1  0  0  0  0 
 24 26  2  0  0  0  0 
 27 25  1  0  0  0  0 
 25 28  2  0  0  0  0 
 26 29  1  0  0  0  0 
 29 27  2  0  0  0  0 
 29 30  1  0  0  0  0 
M  END
> <Name>
beta-D-erythro-Hex-2-enopyranuronic acid, 4-((3-amino-5-((aminoiminomethyl)methylamino)-1-oxopentyl)amino)-1-(4-amino-2-oxo-1(2H)-pyrimidinyl)-1,2,3,4-tetradeoxy-, (S)-

> <Source>
IndexNet2DMolFile

> <Tox>
4.422

> <CAS>
2079-00-7

$$$$

  CDK

 24 23  0  0  0  0  0  0  0  0999 V2000
   -4.5552   -1.6691    6.0936 O   0  0  0  0  0  0  0  0  0  0  0  0
   -3.6453   -0.9682    6.8147 C   0  0  0  0  0  0  0  0  0  0  0  0
   -3.4739   -1.1236    8.0167 O   0  0  0  0  0  0  0  0  0  0  0  0
   -2.8799    0.0240    5.9741 C   0  0  0  0  0  0  0  0  0  0  0  0
   -1.8228    0.7815    6.7729 C   0  0  0  0  0  0  0  0  0  0  0  0
   -1.0499    1.7477    5.9198 C   0  0  0  0  0  0  0  0  0  0  0  0
    0.2788    1.7724    5.7313 C   0  0  0  0  0  0  0  0  0  0  0  0
    1.0513    2.7372    4.8794 C   0  0  0  0  0  0  0  0  0  0  0  0
    1.3024    2.1859    3.5070 C   0  0  0  0  0  0  0  0  0  0  0  0
    0.9465    2.8147    2.3764 C   0  0  0  0  0  0  0  0  0  0  0  0
    1.1658    2.2432    1.0066 C   0  0  0  0  0  0  0  0  0  0  0  0
   -0.1298    2.0768    0.2671 C   0  0  0  0  0  0  0  0  0  0  0  0
   -0.5858    0.8971   -0.1800 C   0  0  0  0  0  0  0  0  0  0  0  0
   -1.8706    0.7260   -0.9339 C   0  0  0  0  0  0  0  0  0  0  0  0
   -2.8160   -0.1998   -0.2273 C   0  0  0  0  0  0  0  0  0  0  0  0
   -3.3012   -1.3724   -0.6638 C   0  0  0  0  0  0  0  0  0  0  0  0
   -4.2475   -2.2908    0.0526 C   0  0  0  0  0  0  0  0  0  0  0  0
   -3.5082   -3.2691    0.9205 C   0  0  0  0  0  0  0  0  0  0  0  0
   -3.5921   -3.4123    2.2523 C   0  0  0  0  0  0  0  0  0  0  0  0
   -2.8524   -4.3905    3.1169 C   0  0  0  0  0  0  0  0  0  0  0  0
   -1.9707   -3.6853    4.1066 C   0  0  0  0  0  0  0  0  0  0  0  0
   -0.6386   -3.8320    4.1594 C   0  0  0  0  0  0  0  0  0  0  0  0
    0.2359   -3.1259    5.1518 C   0  0  0  0  0  0  0  0  0  0  0  0
    0.7146   -1.7858    4.6163 C   0  0  0  0  0  0  0  0  0  0  0  0
  1  2  1  0  0  0  0 
  3  2  2  0  0  0  0 
  4  2  1  0  0  0  0 
  5  4  1  0  0  0  0 
  5  6  1  0  0  0  0 
  6  7  2  0  0  0  0 
  8  7  1  0  0  0  0 
  8  9  1  0  0  0  0 
  9 10  2  0  0  0  0 
 11 10  1  0  0  0  0 
 11 12  1  0  0  0  0 
 12 13  2  0  0  0  0 
 14 13  1  0  0  0  0 
 14 15  1  0  0  0  0 
 15 16  2  0  0  0  0 
 17 16  1  0  0  0  0 
 17 18  1  0  0  0  0 
 18 19  2  0  0  0  0 
 20 19  1  0  0  0  0 
 20 21  1  0  0  0  0 
 21 22  2  0  0  0  0 
 23 22  1  0  0  0  0 
 23 24  1  0  0  0  0 
M  END
> <Name>
4,7,10,13,16,19-Docosahexaenoic acid

> <Source>
Chemidplus3DMolFile

> <Tox>
1.517

> <CAS>
2091-24-9

$$$$

  CDK

 15 15  0  0  0  0  0  0  0  0999 V2000
    3.5325    1.6653    0.0000 C   0  0  0  0  0  0  0  0  0  0  0  0
    2.5232    1.6653    0.0000 C   0  0  0  0  0  0  0  0  0  0  0  0
    3.9867    2.5232    0.0000 C   0  0  0  0  0  0  0  0  0  0  0  0
    4.0372    0.8074    0.0000 C   0  0  0  0  0  0  0  0  0  0  0  0
    2.0186    2.5232    0.0000 C   0  0  0  0  0  0  0  0  0  0  0  0
    3.5325    3.4316    0.0000 C   0  0  0  0  0  0  0  0  0  0  0  0
    4.9960    0.8074    0.0000 C   0  0  0  0  0  0  0  0  0  0  0  0
    3.5325    0.0000    0.0000 C   0  0  0  0  0  0  0  0  0  0  0  0
    2.5232    3.4316    0.0000 C   0  0  0  0  0  0  0  0  0  0  0  0
    1.0598    2.5232    0.0000 C   0  0  0  0  0  0  0  0  0  0  0  0
    1.0598    3.5830    0.0000 C   0  0  0  0  0  0  0  0  0  0  0  0
    0.0000    2.5232    0.0000 C   0  0  0  0  0  0  0  0  0  0  0  0
    1.0598    1.5644    0.0000 N   0  0  0  0  0  0  0  0  0  0  0  0
    1.9177    1.0598    0.0000 C   0  0  0  0  0  0  0  0  0  0  0  0
    2.7756    0.5046    0.0000 O   0  0  0  0  0  0  0  0  0  0  0  0
  2  1  2  0  0  0  0 
  1  3  1  0  0  0  0 
  1  4  1  0  0  0  0 
  5  2  1  0  0  0  0 
  3  6  2  0  0  0  0 
  4  7  2  0  0  0  0 
  4  8  1  0  0  0  0 
  9  5  2  0  0  0  0 
  5 10  1  0  0  0  0 
  6  9  1  0  0  0  0 
 10 11  1  0  0  0  0 
 10 12  1  0  0  0  0 
 10 13  1  0  0  0  0 
 13 14  2  0  0  0  0 
 14 15  2  0  0  0  0 
M  END
> <Name>
Benzene, 1-(1-isocyanato-1-methylethyl)-3-(1-methylethenyl)-

> <Source>
NIST2DMolFile

> <Tox>
1.812

> <CAS>
2094-99-7

$$$$

  CDK

  7  6  0  0  0  0  0  0  0  0999 V2000
   -2.5561   -0.1174    0.0005 C   0  0  0  0  0  0  0  0  0  0  0  0
   -1.2338   -0.7057   -0.0008 C   0  0  0  0  0  0  0  0  0  0  0  0
   -3.6178    0.3479    0.0015 N   0  0  0  0  0  0  0  0  0  0  0  0
   -0.1637    0.3907   -0.0023 C   0  0  0  0  0  0  0  0  0  0  0  0
    1.0862   -0.2796   -0.0001 O   0  0  0  0  0  0  0  0  0  0  0  0
    2.1963    0.6077    0.0004 C   0  0  0  0  0  0  0  0  0  0  0  0
    3.4483   -0.2483    0.0011 C   0  0  0  0  0  0  0  0  0  0  0  0
  1  2  1  0  0  0  0 
  1  3  3  0  0  0  0 
  2  4  1  0  0  0  0 
  4  5  1  0  0  0  0 
  5  6  1  0  0  0  0 
  6  7  1  0  0  0  0 
M  END
> <Name>
Propionitrile, 3-ethoxy- (8CI)

> <Source>
DougDB3DMolFile

> <Tox>
1.491

> <CAS>
2141-62-0

$$$$

  CDK

 13 14  0  0  0  0  0  0  0  0999 V2000
    1.0735   -1.6778    0.0000 N   0  0  0  0  0  0  0  0  0  0  0  0
    2.3390   -1.2655    0.0000 C   0  0  0  0  0  0  0  0  0  0  0  0
    1.0735   -3.0073    0.0000 C   0  0  0  0  0  0  0  0  0  0  0  0
    2.7513   -0.0000    0.0000 O   0  0  0  0  0  0  0  0  0  0  0  0
    3.1210   -2.3461    0.0000 C   0  0  0  0  0  0  0  0  0  0  0  0
    2.3390   -3.4196    0.0000 O   0  0  0  0  0  0  0  0  0  0  0  0
    0.0000   -3.7893    0.0000 N   0  0  0  0  0  0  0  0  0  0  0  0
    4.4505   -2.3461    0.0000 C   0  0  0  0  0  0  0  0  0  0  0  0
    5.1187   -1.1944    0.0000 C   0  0  0  0  0  0  0  0  0  0  0  0
    5.1187   -3.4978    0.0000 C   0  0  0  0  0  0  0  0  0  0  0  0
    6.4482   -1.1944    0.0000 C   0  0  0  0  0  0  0  0  0  0  0  0
    6.4482   -3.4978    0.0000 C   0  0  0  0  0  0  0  0  0  0  0  0
    7.1094   -2.3461    0.0000 C   0  0  0  0  0  0  0  0  0  0  0  0
  1  2  1  0  0  0  0 
  1  3  2  0  0  0  0 
  2  4  2  0  0  0  0 
  2  5  1  0  0  0  0 
  6  3  1  0  0  0  0 
  3  7  1  0  0  0  0 
  5  8  1  0  0  0  0 
  5  6  1  0  0  0  0 
  8  9  2  0  0  0  0 
  8 10  1  0  0  0  0 
  9 11  1  0  0  0  0 
 12 10  2  0  0  0  0 
 11 13  2  0  0  0  0 
 13 12  1  0  0  0  0 
M  END
> <Name>
4(5H)-Oxazolone, 2-amino-5-phenyl-

> <Source>
DSSTox2DMolFile

> <Tox>
2.606

> <CAS>
2152-34-3

$$$$

  CDK

 11 10  0  0  0  0  0  0  0  0999 V2000
    1.1538   -2.6530    0.0000 C   0  0  0  0  0  0  0  0  0  0  0  0
    2.3007   -3.3232    0.0000 C   0  0  0  0  0  0  0  0  0  0  0  0
    0.0000   -3.3232    0.0000 O   0  0  0  0  0  0  0  0  0  0  0  0
    3.4545   -2.6530    0.0000 N   0  0  0  0  0  0  0  0  0  0  0  0
    4.6083   -3.3232    0.0000 C   0  0  0  0  0  0  0  0  0  0  0  0
    3.4545   -1.3265    0.0000 C   0  0  0  0  0  0  0  0  0  0  0  0
    5.7552   -2.6530    0.0000 C   0  0  0  0  0  0  0  0  0  0  0  0
    2.1280   -1.3265    0.0000 C   0  0  0  0  0  0  0  0  0  0  0  0
    4.7810   -1.3265    0.0000 C   0  0  0  0  0  0  0  0  0  0  0  0
    3.4545   -0.0000    0.0000 C   0  0  0  0  0  0  0  0  0  0  0  0
    6.9090   -3.3232    0.0000 O   0  0  0  0  0  0  0  0  0  0  0  0
  1  2  1  0  0  0  0 
  1  3  1  0  0  0  0 
  2  4  1  0  0  0  0 
  5  4  1  0  0  0  0 
  4  6  1  0  0  0  0 
  7  5  1  0  0  0  0 
  6  8  1  0  0  0  0 
  6  9  1  0  0  0  0 
  6 10  1  0  0  0  0 
  7 11  1  0  0  0  0 
M  END
> <Name>
Ethanol, 2,2'-(tert-butylimino)di- (6CI,7CI,8CI)

> <Source>
DSSTox2DMolFile

> <Tox>
1.773

> <CAS>
2160-93-2

$$$$

  CDK

 14 14  0  0  0  0  0  0  0  0999 V2000
    1.1541   -1.9972    0.0000 C   0  0  0  0  0  0  0  0  0  0  0  0
    1.1541   -0.6634    0.0000 C   0  0  0  0  0  0  0  0  0  0  0  0
    2.3012   -2.6606    0.0000 C   0  0  0  0  0  0  0  0  0  0  0  0
    0.0000   -2.6606    0.0000 Cl  0  0  0  0  0  0  0  0  0  0  0  0
    2.3012   -0.0000    0.0000 C   0  0  0  0  0  0  0  0  0  0  0  0
    0.0000   -0.0000    0.0000 Cl  0  0  0  0  0  0  0  0  0  0  0  0
    3.4553   -1.9972    0.0000 C   0  0  0  0  0  0  0  0  0  0  0  0
    3.4553   -0.6634    0.0000 C   0  0  0  0  0  0  0  0  0  0  0  0
    4.6093   -2.6606    0.0000 N   0  0  0  0  0  0  0  0  0  0  0  0
    5.7565   -1.9972    0.0000 C   0  0  0  0  0  0  0  0  0  0  0  0
    5.7565   -0.6634    0.0000 C   0  0  0  0  0  0  0  0  0  0  0  0
    6.9106   -2.6606    0.0000 O   0  0  0  0  0  0  0  0  0  0  0  0
    6.9106   -0.0000    0.0000 C   0  0  0  0  0  0  0  0  0  0  0  0
    4.6093   -0.0000    0.0000 C   0  0  0  0  0  0  0  0  0  0  0  0
  1  2  1  0  0  0  0 
  1  3  2  0  0  0  0 
  1  4  1  0  0  0  0 
  2  5  2  0  0  0  0 
  2  6  1  0  0  0  0 
  7  3  1  0  0  0  0 
  5  8  1  0  0  0  0 
  8  7  2  0  0  0  0 
  7  9  1  0  0  0  0 
  9 10  1  0  0  0  0 
 10 11  1  0  0  0  0 
 10 12  2  0  0  0  0 
 11 13  1  0  0  0  0 
 11 14  2  0  0  0  0 
M  END
> <Name>
2-Propenamide, N-(3,4-dichlorophenyl)-2-methyl- (9CI)

> <Source>
DSSTox2DMolFile

> <Tox>
2.107

> <CAS>
2164-09-2

$$$$

  CDK

  8  8  0  0  0  0  0  0  0  0999 V2000
    1.4816    2.5033    0.0000 C   0  0  0  0  0  0  0  0  0  0  0  0
    1.4816    1.4816    0.0000 C   0  0  0  0  0  0  0  0  0  0  0  0
    2.5033    2.5033    0.0000 O   0  0  0  0  0  0  0  0  0  0  0  0
    2.5033    1.4816    0.0000 C   0  0  0  0  0  0  0  0  0  0  0  0
    0.5109    1.4816    0.0000 C   0  0  0  0  0  0  0  0  0  0  0  0
    1.4816    0.5109    0.0000 C   0  0  0  0  0  0  0  0  0  0  0  0
    0.0000    0.6642    0.0000 Cl  0  0  0  0  0  0  0  0  0  0  0  0
    2.3501    0.0000    0.0000 C   0  0  0  0  0  0  0  0  0  0  0  0
  2  1  1  0  0  0  0 
  1  3  1  0  0  0  0 
  4  2  1  0  0  0  0 
  2  5  1  0  0  0  0 
  2  6  1  0  0  0  0 
  3  4  1  0  0  0  0 
  5  7  1  0  0  0  0 
  6  8  1  0  0  0  0 
M  END
> <Name>
Oxetane, 3-(chloromethyl)-3-ethyl-

> <Source>
NIST2DMolFile

> <Tox>
2.373

> <CAS>
2177-22-2

$$$$

  CDK

 12 13  0  0  0  0  0  0  0  0999 V2000
    3.6359   -2.6578    0.0000 O   0  0  0  0  0  0  0  0  0  0  0  0
    2.4806   -1.9987    0.0000 C   0  0  0  0  0  0  0  0  0  0  0  0
    4.7841   -1.9987    0.0000 C   0  0  0  0  0  0  0  0  0  0  0  0
    1.3325   -2.6578    0.0000 C   0  0  0  0  0  0  0  0  0  0  0  0
    4.7841   -0.6662    0.0000 C   0  0  0  0  0  0  0  0  0  0  0  0
    5.9393   -2.6578    0.0000 C   0  0  0  0  0  0  0  0  0  0  0  0
    0.6662   -3.8131    0.0000 C   0  0  0  0  0  0  0  0  0  0  0  0
    0.0000   -2.6578    0.0000 O   0  0  0  0  0  0  0  0  0  0  0  0
    5.9393   -0.0000    0.0000 C   0  0  0  0  0  0  0  0  0  0  0  0
    7.0875   -1.9987    0.0000 C   0  0  0  0  0  0  0  0  0  0  0  0
    5.9393   -3.9903    0.0000 C   0  0  0  0  0  0  0  0  0  0  0  0
    7.0875   -0.6662    0.0000 C   0  0  0  0  0  0  0  0  0  0  0  0
  1  2  1  0  0  0  0 
  1  3  1  0  0  0  0 
  2  4  1  0  0  0  0 
  3  5  2  0  0  0  0 
  3  6  1  0  0  0  0 
  4  7  1  0  0  0  0 
  4  8  1  0  0  0  0 
  5  9  1  0  0  0  0 
 10  6  2  0  0  0  0 
  6 11  1  0  0  0  0 
  7  8  1  0  0  0  0 
  9 12  2  0  0  0  0 
 12 10  1  0  0  0  0 
M  END
> <Name>
Oxirane, ((2-methylphenoxy)methyl)-

> <Source>
DSSTox2DMolFile

> <Tox>
1.613

> <CAS>
2210-79-9

$$$$

  CDK

 10  9  0  0  0  0  0  0  0  0999 V2000
    3.4940    1.5192    0.0000 O   0  0  0  0  0  0  0  0  0  0  0  0
    2.4813    1.5192    0.0000 Si  0  0  0  0  0  0  0  0  0  0  0  0
    4.0004    2.4306    0.0000 C   0  0  0  0  0  0  0  0  0  0  0  0
    1.4685    1.5192    0.0000 O   0  0  0  0  0  0  0  0  0  0  0  0
    2.4813    0.5570    0.0000 C   0  0  0  0  0  0  0  0  0  0  0  0
    2.4813    2.5826    0.0000 C   0  0  0  0  0  0  0  0  0  0  0  0
    4.9626    2.4306    0.0000 C   0  0  0  0  0  0  0  0  0  0  0  0
    0.9621    2.3800    0.0000 C   0  0  0  0  0  0  0  0  0  0  0  0
    1.6711    0.0000    0.0000 Cl  0  0  0  0  0  0  0  0  0  0  0  0
    0.0000    2.3800    0.0000 C   0  0  0  0  0  0  0  0  0  0  0  0
  1  2  1  0  0  0  0 
  1  3  1  0  0  0  0 
  2  4  1  0  0  0  0 
  2  5  1  0  0  0  0 
  2  6  1  0  0  0  0 
  3  7  1  0  0  0  0 
  4  8  1  0  0  0  0 
  5  9  1  0  0  0  0 
  8 10  1  0  0  0  0 
M  END
> <Name>
Silane, (chloromethyl)diethoxymethyl-

> <Source>
NIST2DMolFile

> <Tox>
2.148

> <CAS>
2212-10-4

$$$$

  CDK

  9 10  0  0  0  0  0  0  0  0999 V2000
   -0.0008    0.1387   -0.0161 O   0  0  0  0  0  0  0  0  0  0  0  0
   -1.1766   -0.6547   -0.0829 C   0  0  0  0  0  0  0  0  0  0  0  0
    1.1755   -0.6358    0.1644 C   0  0  0  0  0  0  0  0  0  0  0  0
   -2.3184    0.3080   -0.3571 C   0  0  0  0  0  0  0  0  0  0  0  0
    2.3156    0.3572    0.3057 C   0  0  0  0  0  0  0  0  0  0  0  0
   -3.3346    0.6024    0.6893 C   0  0  0  0  0  0  0  0  0  0  0  0
   -3.6293   -0.2801   -0.3989 O   0  0  0  0  0  0  0  0  0  0  0  0
    3.3436    0.4942   -0.7614 C   0  0  0  0  0  0  0  0  0  0  0  0
    3.6250   -0.2182    0.4481 O   0  0  0  0  0  0  0  0  0  0  0  0
  1  2  1  0  0  0  0 
  1  3  1  0  0  0  0 
  2  4  1  0  0  0  0 
  3  5  1  0  0  0  0 
  4  6  1  0  0  0  0 
  4  7  1  0  0  0  0 
  5  8  1  0  0  0  0 
  5  9  1  0  0  0  0 
  6  7  1  0  0  0  0 
  8  9  1  0  0  0  0 
M  END
> <Name>
Oxirane, 2,2'-(oxybis(methylene))bis-

> <Source>
DougDB3DMolFile

> <Tox>
2.461

> <CAS>
2238-07-5

$$$$

  CDK

 12 13  0  0  0  0  0  0  0  0999 V2000
    1.4260    2.0929    0.0001 N   0  0  0  0  0  0  0  0  0  0  0  0
    1.0397    0.7486    0.0000 C   0  0  0  0  0  0  0  0  0  0  0  0
    1.9885   -0.2715    0.0001 C   0  0  0  0  0  0  0  0  0  0  0  0
   -0.3633    0.4298    0.0000 C   0  0  0  0  0  0  0  0  0  0  0  0
    1.5584   -1.6181    0.0002 C   0  0  0  0  0  0  0  0  0  0  0  0
    3.4500    0.0023   -0.0003 C   0  0  0  0  0  0  0  0  0  0  0  0
   -0.7558   -0.9239    0.0000 C   0  0  0  0  0  0  0  0  0  0  0  0
   -1.3706    1.4325    0.0000 C   0  0  0  0  0  0  0  0  0  0  0  0
    0.2300   -1.9442    0.0001 C   0  0  0  0  0  0  0  0  0  0  0  0
   -2.1393   -1.2513   -0.0001 C   0  0  0  0  0  0  0  0  0  0  0  0
   -2.6968    1.0938    0.0000 C   0  0  0  0  0  0  0  0  0  0  0  0
   -3.0866   -0.2643   -0.0001 C   0  0  0  0  0  0  0  0  0  0  0  0
  1  2  1  0  0  0  0 
  2  3  2  0  0  0  0 
  2  4  1  0  0  0  0 
  3  5  1  0  0  0  0 
  3  6  1  0  0  0  0 
  7  4  1  0  0  0  0 
  8  4  2  0  0  0  0 
  5  9  2  0  0  0  0 
  9  7  1  0  0  0  0 
  7 10  2  0  0  0  0 
 11  8  1  0  0  0  0 
 10 12  1  0  0  0  0 
 12 11  2  0  0  0  0 
M  END
> <Name>
1-Naphthylamine, 2-methyl-

> <Source>
DougDB3DMolFile

> <Tox>
2.404

> <CAS>
2246-44-8

$$$$

  CDK

 18 18  0  0  0  0  0  0  0  0999 V2000
    3.5092   -0.2905    0.0000 P   0  0  0  0  0  0  0  0  0  0  0  0
    2.8092   -1.5030    0.0000 O   0  0  0  0  0  0  0  0  0  0  0  0
    4.7216   -0.9905    0.0000 O   0  0  0  0  0  0  0  0  0  0  0  0
    4.2092    0.9219    0.0000 O   0  0  0  0  0  0  0  0  0  0  0  0
    2.2968    0.4095    0.0000 O   0  0  0  0  0  0  0  0  0  0  0  0
    5.9341   -0.2905    0.0000 C   0  0  0  0  0  0  0  0  0  0  0  0
    5.6092    0.9219    0.0000 C   0  0  0  0  0  0  0  0  0  0  0  0
    1.0843   -0.2905    0.0000 C   0  0  0  0  0  0  0  0  0  0  0  0
    1.0843   -1.6905    0.0000 C   0  0  0  0  0  0  0  0  0  0  0  0
   -0.1281    0.4095    0.0000 C   0  0  0  0  0  0  0  0  0  0  0  0
    2.2968   -2.3905    0.0000 Cl  0  0  0  0  0  0  0  0  0  0  0  0
   -1.3405   -0.2905    0.0000 C   0  0  0  0  0  0  0  0  0  0  0  0
   -0.1281    1.8095    0.0000 C   0  0  0  0  0  0  0  0  0  0  0  0
   -2.5530    0.4095    0.0000 C   0  0  0  0  0  0  0  0  0  0  0  0
   -1.3405   -1.6905    0.0000 Cl  0  0  0  0  0  0  0  0  0  0  0  0
   -1.3405    2.5095    0.0000 C   0  0  0  0  0  0  0  0  0  0  0  0
   -2.5530    1.8095    0.0000 C   0  0  0  0  0  0  0  0  0  0  0  0
   -3.7654    2.5095    0.0000 Cl  0  0  0  0  0  0  0  0  0  0  0  0
  2  1  2  0  0  0  0 
  3  1  1  0  0  0  0 
  4  1  1  0  0  0  0 
  5  1  1  0  0  0  0 
  3  6  1  0  0  0  0 
  4  7  1  0  0  0  0 
  5  8  1  0  0  0  0 
  9  8  2  0  0  0  0 
  8 10  1  0  0  0  0 
  9 11  1  0  0  0  0 
 12 10  1  0  0  0  0 
 13 10  2  0  0  0  0 
 14 12  2  0  0  0  0 
 12 15  1  0  0  0  0 
 13 16  1  0  0  0  0 
 17 14  1  0  0  0  0 
 16 17  2  0  0  0  0 
 17 18  1  0  0  0  0 
M  END
> <Name>
Phosphoric acid, 2-chloro-1-(2,4-dichlorophenyl)ethenyl dimethyl ester

> <Source>
IndexNet2DMolFile

> <Tox>
3.532

> <CAS>
2274-67-1

$$$$

  CDK

  6  6  0  0  0  0  0  0  0  0999 V2000
    0.0000    0.8023    0.0000 N   0  0  0  0  0  0  0  0  0  0  0  0
    0.6018    1.6047    0.0000 C   0  0  0  0  0  0  0  0  0  0  0  0
    0.6018    0.0000    0.0000 C   0  0  0  0  0  0  0  0  0  0  0  0
    1.5546    1.3038    0.0000 C   0  0  0  0  0  0  0  0  0  0  0  0
    1.5546    0.3009    0.0000 N   0  0  0  0  0  0  0  0  0  0  0  0
    2.2566    2.0059    0.0000 Br  0  0  0  0  0  0  0  0  0  0  0  0
  2  1  1  0  0  0  0 
  1  3  1  0  0  0  0 
  4  2  2  0  0  0  0 
  3  5  2  0  0  0  0 
  5  4  1  0  0  0  0 
  4  6  1  0  0  0  0 
M  END
> <Name>
Imidazole, 4(or 5)-bromo- (6CI,7CI)

> <Source>
NIST2DMolFile

> <Tox>
2.769

> <CAS>
2302-25-2

$$$$

  CDK

 21 22  0  0  0  0  0  0  0  0999 V2000
    3.5025   -2.4172    0.0000 N   0  0  0  0  0  0  0  0  0  0  0  0
    2.7543   -1.3731    0.0000 C   0  0  0  0  0  0  0  0  0  0  0  0
    4.7851   -2.0144    0.0000 C   0  0  0  0  0  0  0  0  0  0  0  0
    3.5025   -3.7492    0.0000 C   0  0  0  0  0  0  0  0  0  0  0  0
    3.5190   -0.2795    0.0000 O   0  0  0  0  0  0  0  0  0  0  0  0
    1.4306   -1.3731    0.0000 O   0  0  0  0  0  0  0  0  0  0  0  0
    4.7851   -0.6989    0.0000 C   0  0  0  0  0  0  0  0  0  0  0  0
    5.9197   -2.6721    0.0000 C   0  0  0  0  0  0  0  0  0  0  0  0
    2.3268   -4.3905    0.0000 S   0  0  0  0  0  0  0  0  0  0  0  0
    5.9197   -0.0329    0.0000 C   0  0  0  0  0  0  0  0  0  0  0  0
    7.0872   -2.0144    0.0000 C   0  0  0  0  0  0  0  0  0  0  0  0
    2.3268   -5.7306    0.0000 P   0  0  0  0  0  0  0  0  0  0  0  0
    7.0872   -0.6989    0.0000 C   0  0  0  0  0  0  0  0  0  0  0  0
    3.6423   -5.7306    0.0000 S   0  0  0  0  0  0  0  0  0  0  0  0
    2.3268   -7.0708    0.0000 O   0  0  0  0  0  0  0  0  0  0  0  0
    0.9866   -5.7306    0.0000 O   0  0  0  0  0  0  0  0  0  0  0  0
    8.2219   -0.0000    0.0000 Cl  0  0  0  0  0  0  0  0  0  0  0  0
    1.1757   -7.7450    0.0000 C   0  0  0  0  0  0  0  0  0  0  0  0
    0.3124   -4.5796    0.0000 C   0  0  0  0  0  0  0  0  0  0  0  0
    0.0000   -7.0708    0.0000 C   0  0  0  0  0  0  0  0  0  0  0  0
    0.9866   -3.4285    0.0000 C   0  0  0  0  0  0  0  0  0  0  0  0
  1  2  1  0  0  0  0 
  1  3  1  0  0  0  0 
  1  4  1  0  0  0  0 
  2  5  1  0  0  0  0 
  2  6  2  0  0  0  0 
  3  7  1  0  0  0  0 
  3  8  2  0  0  0  0 
  4  9  1  0  0  0  0 
  5  7  1  0  0  0  0 
  7 10  2  0  0  0  0 
  8 11  1  0  0  0  0 
 12  9  1  0  0  0  0 
 10 13  1  0  0  0  0 
 13 11  2  0  0  0  0 
 12 14  2  0  0  0  0 
 12 15  1  0  0  0  0 
 12 16  1  0  0  0  0 
 13 17  1  0  0  0  0 
 15 18  1  0  0  0  0 
 16 19  1  0  0  0  0 
 18 20  1  0  0  0  0 
 19 21  1  0  0  0  0 
M  END
> <Name>
Phosphorodithioic acid, S-((6-chloro-2-oxo-3(2H)-benzoxazolyl)methyl) O,O-diethyl ester

> <Source>
DSSTox2DMolFile

> <Tox>
3.636

> <CAS>
2310-17-0

$$$$

  CDK

 24 25  0  0  0  0  0  0  0  0999 V2000
    5.7677   -3.9938    0.0000 S   0  0  0  0  0  0  0  0  0  0  0  0
    5.7677   -2.6556    0.0000 O   0  0  0  0  0  0  0  0  0  0  0  0
    4.6058   -4.6577    0.0000 O   0  0  0  0  0  0  0  0  0  0  0  0
    6.9088   -4.6577    0.0000 O   0  0  0  0  0  0  0  0  0  0  0  0
    6.9088   -2.0021    0.0000 C   0  0  0  0  0  0  0  0  0  0  0  0
    8.0706   -3.9938    0.0000 C   0  0  0  0  0  0  0  0  0  0  0  0
    6.9088   -0.6847    0.0000 C   0  0  0  0  0  0  0  0  0  0  0  0
    8.0706   -2.6556    0.0000 C   0  0  0  0  0  0  0  0  0  0  0  0
    9.2220   -4.6577    0.0000 C   0  0  0  0  0  0  0  0  0  0  0  0
    5.7677   -0.0000    0.0000 O   0  0  0  0  0  0  0  0  0  0  0  0
    8.0706   -0.0000    0.0000 C   0  0  0  0  0  0  0  0  0  0  0  0
    9.2220   -2.0021    0.0000 C   0  0  0  0  0  0  0  0  0  0  0  0
   10.3735   -5.3216    0.0000 C   0  0  0  0  0  0  0  0  0  0  0  0
    4.6058   -0.6847    0.0000 C   0  0  0  0  0  0  0  0  0  0  0  0
    9.2220   -0.6847    0.0000 C   0  0  0  0  0  0  0  0  0  0  0  0
    4.6058   -2.0021    0.0000 C   0  0  0  0  0  0  0  0  0  0  0  0
    3.4648   -0.0000    0.0000 C   0  0  0  0  0  0  0  0  0  0  0  0
    3.4648   -2.6556    0.0000 C   0  0  0  0  0  0  0  0  0  0  0  0
    2.3029   -0.6847    0.0000 C   0  0  0  0  0  0  0  0  0  0  0  0
    2.3029   -2.0021    0.0000 C   0  0  0  0  0  0  0  0  0  0  0  0
    1.1515   -2.6556    0.0000 C   0  0  0  0  0  0  0  0  0  0  0  0
    0.0000   -3.3299    0.0000 C   0  0  0  0  0  0  0  0  0  0  0  0
    0.5083   -1.5042    0.0000 C   0  0  0  0  0  0  0  0  0  0  0  0
    1.8257   -3.8175    0.0000 C   0  0  0  0  0  0  0  0  0  0  0  0
  1  2  1  0  0  0  0 
  1  3  2  0  0  0  0 
  1  4  1  0  0  0  0 
  2  5  1  0  0  0  0 
  4  6  1  0  0  0  0 
  5  7  1  0  0  0  0 
  5  8  1  0  0  0  0 
  9  6  1  0  0  0  0 
  7 10  1  0  0  0  0 
  7 11  1  0  0  0  0 
  8 12  1  0  0  0  0 
  9 13  3  0  0  0  0 
 10 14  1  0  0  0  0 
 11 15  1  0  0  0  0 
 12 15  1  0  0  0  0 
 14 16  1  0  0  0  0 
 14 17  2  0  0  0  0 
 18 16  2  0  0  0  0 
 19 17  1  0  0  0  0 
 20 18  1  0  0  0  0 
 20 19  2  0  0  0  0 
 21 20  1  0  0  0  0 
 21 22  1  0  0  0  0 
 21 23  1  0  0  0  0 
 21 24  1  0  0  0  0 
M  END
> <Name>
Sulfurous acid, 2-(4-(1,1-dimethylethyl)phenoxy)cyclohexyl 2-propynyl ester

> <Source>
DSSTox2DMolFile

> <Tox>
2.374

> <CAS>
2312-35-8

$$$$

  CDK

 17 17  0  0  0  0  0  0  0  0999 V2000
    3.5000    1.2124    0.0000 C   0  0  0  0  0  0  0  0  0  0  0  0
    2.1000    1.2124    0.0000 N   0  0  0  0  0  0  0  0  0  0  0  0
    4.2000    0.0000    0.0000 O   0  0  0  0  0  0  0  0  0  0  0  0
    4.2000    2.4249    0.0000 O   0  0  0  0  0  0  0  0  0  0  0  0
    1.4000    0.0000    0.0000 C   0  0  0  0  0  0  0  0  0  0  0  0
    1.4000    2.4249    0.0000 C   0  0  0  0  0  0  0  0  0  0  0  0
    5.6000    2.4249    0.0000 C   0  0  0  0  0  0  0  0  0  0  0  0
    2.1000    3.6373    0.0000 O   0  0  0  0  0  0  0  0  0  0  0  0
    0.0000    2.4249    0.0000 C   0  0  0  0  0  0  0  0  0  0  0  0
    6.3000    3.6373    0.0000 C   0  0  0  0  0  0  0  0  0  0  0  0
    6.3000    1.2124    0.0000 C   0  0  0  0  0  0  0  0  0  0  0  0
    7.7000    3.6373    0.0000 C   0  0  0  0  0  0  0  0  0  0  0  0
    7.7000    1.2124    0.0000 C   0  0  0  0  0  0  0  0  0  0  0  0
    5.6000    0.0000    0.0000 Cl  0  0  0  0  0  0  0  0  0  0  0  0
    8.4000    2.4249    0.0000 C   0  0  0  0  0  0  0  0  0  0  0  0
    8.4000    4.8497    0.0000 C   0  0  0  0  0  0  0  0  0  0  0  0
    9.8000    2.4249    0.0000 C   0  0  0  0  0  0  0  0  0  0  0  0
  1  2  1  0  0  0  0 
  1  3  2  0  0  0  0 
  1  4  1  0  0  0  0 
  2  5  1  0  0  0  0 
  2  6  1  0  0  0  0 
  4  7  1  0  0  0  0 
  6  8  2  0  0  0  0 
  6  9  1  0  0  0  0 
  7 10  1  0  0  0  0 
  7 11  2  0  0  0  0 
 10 12  2  0  0  0  0 
 13 11  1  0  0  0  0 
 11 14  1  0  0  0  0 
 12 15  1  0  0  0  0 
 12 16  1  0  0  0  0 
 15 13  2  0  0  0  0 
 15 17  1  0  0  0  0 
M  END
> <Name>
Carbamic acid, acetylmethyl-, 2-chloro-4,5-dimethylphenyl ester

> <Source>
Name2DMolFile

> <Tox>
1.806

> <CAS>
2313-93-1

$$$$

  CDK

 27 27  0  0  0  0  0  0  0  0999 V2000
    3.5253    2.5684    0.0000 Si  0  0  0  0  0  0  0  0  0  0  0  0
    3.5253    3.5253    0.0000 O   0  0  0  0  0  0  0  0  0  0  0  0
    4.3311    2.1152    0.0000 O   0  0  0  0  0  0  0  0  0  0  0  0
    2.5181    2.5684    0.0000 C   0  0  0  0  0  0  0  0  0  0  0  0
    3.0217    1.7123    0.0000 C   0  0  0  0  0  0  0  0  0  0  0  0
    4.3311    4.0289    0.0000 Si  0  0  0  0  0  0  0  0  0  0  0  0
    5.1872    2.5684    0.0000 Si  0  0  0  0  0  0  0  0  0  0  0  0
    2.0145    1.7123    0.0000 C   0  0  0  0  0  0  0  0  0  0  0  0
    5.1872    3.5253    0.0000 O   0  0  0  0  0  0  0  0  0  0  0  0
    4.8347    4.8851    0.0000 C   0  0  0  0  0  0  0  0  0  0  0  0
    3.8778    4.8851    0.0000 C   0  0  0  0  0  0  0  0  0  0  0  0
    5.6909    1.7123    0.0000 C   0  0  0  0  0  0  0  0  0  0  0  0
    6.2448    2.5684    0.0000 C   0  0  0  0  0  0  0  0  0  0  0  0
    1.0576    1.7123    0.0000 C   0  0  0  0  0  0  0  0  0  0  0  0
    5.8419    4.8851    0.0000 C   0  0  0  0  0  0  0  0  0  0  0  0
    6.6981    1.7123    0.0000 C   0  0  0  0  0  0  0  0  0  0  0  0
    1.0576    2.7195    0.0000 F   0  0  0  0  0  0  0  0  0  0  0  0
    0.0000    1.7123    0.0000 F   0  0  0  0  0  0  0  0  0  0  0  0
    1.0576    0.7051    0.0000 F   0  0  0  0  0  0  0  0  0  0  0  0
    6.3456    5.7916    0.0000 C   0  0  0  0  0  0  0  0  0  0  0  0
    7.2521    0.8561    0.0000 C   0  0  0  0  0  0  0  0  0  0  0  0
    5.4390    6.2952    0.0000 F   0  0  0  0  0  0  0  0  0  0  0  0
    6.8995    6.6477    0.0000 F   0  0  0  0  0  0  0  0  0  0  0  0
    7.2521    5.2880    0.0000 F   0  0  0  0  0  0  0  0  0  0  0  0
    6.3456    0.3022    0.0000 F   0  0  0  0  0  0  0  0  0  0  0  0
    7.7557    0.0000    0.0000 F   0  0  0  0  0  0  0  0  0  0  0  0
    8.1082    1.3598    0.0000 F   0  0  0  0  0  0  0  0  0  0  0  0
  1  2  1  0  0  0  0 
  3  1  1  0  0  0  0 
  1  4  1  0  0  0  0 
  1  5  1  0  0  0  0 
  2  6  1  0  0  0  0 
  7  3  1  0  0  0  0 
  4  8  1  0  0  0  0 
  6  9  1  0  0  0  0 
  6 10  1  0  0  0  0 
  6 11  1  0  0  0  0 
  9  7  1  0  0  0  0 
  7 12  1  0  0  0  0 
  7 13  1  0  0  0  0 
  8 14  1  0  0  0  0 
 10 15  1  0  0  0  0 
 12 16  1  0  0  0  0 
 14 17  1  0  0  0  0 
 14 18  1  0  0  0  0 
 14 19  1  0  0  0  0 
 15 20  1  0  0  0  0 
 16 21  1  0  0  0  0 
 20 22  1  0  0  0  0 
 20 23  1  0  0  0  0 
 20 24  1  0  0  0  0 
 21 25  1  0  0  0  0 
 21 26  1  0  0  0  0 
 21 27  1  0  0  0  0 
M  END
> <Name>
Cyclotrisiloxane, 2,4,6-trimethyl-2,4,6-tris(3,3,3-trifluoropropyl)-

> <Source>
NIST2DMolFile

> <Tox>
3.415

> <CAS>
2374-14-3

$$$$

  CDK

 16 15  0  0  0  0  0  0  0  0999 V2000
   -5.3598   -0.5813    0.0000 C   0  0  0  0  0  0  0  0  0  0  0  0
   -4.5410   -0.4800    0.0000 C   0  0  0  0  0  0  0  0  0  0  0  0
   -3.7223   -0.3787    0.0000 C   0  0  0  0  0  0  0  0  0  0  0  0
   -2.9035   -0.2774    0.0000 C   0  0  0  0  0  0  0  0  0  0  0  0
   -2.0848   -0.1761    0.0000 C   0  0  0  0  0  0  0  0  0  0  0  0
   -1.2660   -0.0748    0.0000 C   0  0  0  0  0  0  0  0  0  0  0  0
   -0.4473    0.0265    0.0000 C   0  0  0  0  0  0  0  0  0  0  0  0
    0.3715    0.1278    0.0000 C   0  0  0  0  0  0  0  0  0  0  0  0
    1.1903    0.2291    0.0000 C   0  0  0  0  0  0  0  0  0  0  0  0
    2.0090    0.3304    0.0000 C   0  0  0  0  0  0  0  0  0  0  0  0
    2.8278    0.4317    0.0000 C   0  0  0  0  0  0  0  0  0  0  0  0
    3.6465    0.5329    0.0000 C   0  0  0  0  0  0  0  0  0  0  0  0
    4.4653    0.6342    0.0000 N   0  0  0  0  0  0  0  0  0  0  0  0
    4.9624   -0.0242    0.0000 C   0  0  0  0  0  0  0  0  0  0  0  0
    5.7811    0.0771    0.0000 N   0  0  0  0  0  0  0  0  0  0  0  0
    4.6407   -0.7839    0.0000 S   0  0  0  0  0  0  0  0  0  0  0  0
  1  2  1  0  0  0  0 
  2  3  1  0  0  0  0 
  3  4  1  0  0  0  0 
  4  5  1  0  0  0  0 
  5  6  1  0  0  0  0 
  6  7  1  0  0  0  0 
  7  8  1  0  0  0  0 
  8  9  1  0  0  0  0 
  9 10  1  0  0  0  0 
 10 11  1  0  0  0  0 
 11 12  1  0  0  0  0 
 12 13  1  0  0  0  0 
 13 14  1  0  0  0  0 
 14 15  1  0  0  0  0 
 14 16  2  0  0  0  0 
M  END
> <Name>
Urea, 1-dodecyl-2-thio-

> <Source>
Smiles

> <Tox>
2.388

> <CAS>
2422-90-4

$$$$

  CDK

 14 15  0  0  0  0  0  0  0  0999 V2000
    2.4760   -3.1482    0.0000 C   0  0  0  0  0  0  0  0  0  0  0  0
    3.6300   -2.4872    0.0000 O   0  0  0  0  0  0  0  0  0  0  0  0
    1.3332   -2.4872    0.0000 C   0  0  0  0  0  0  0  0  0  0  0  0
    4.7839   -3.1482    0.0000 C   0  0  0  0  0  0  0  0  0  0  0  0
    0.0000   -2.4872    0.0000 C   0  0  0  0  0  0  0  0  0  0  0  0
    0.6610   -1.3332    0.0000 O   0  0  0  0  0  0  0  0  0  0  0  0
    5.9379   -2.4872    0.0000 C   0  0  0  0  0  0  0  0  0  0  0  0
    7.0807   -3.1482    0.0000 C   0  0  0  0  0  0  0  0  0  0  0  0
    8.2346   -2.4872    0.0000 C   0  0  0  0  0  0  0  0  0  0  0  0
    9.3886   -3.1482    0.0000 O   0  0  0  0  0  0  0  0  0  0  0  0
   10.5426   -2.4872    0.0000 C   0  0  0  0  0  0  0  0  0  0  0  0
   10.5426   -1.1540    0.0000 C   0  0  0  0  0  0  0  0  0  0  0  0
    9.8703   -0.0000    0.0000 C   0  0  0  0  0  0  0  0  0  0  0  0
   11.2036   -0.0000    0.0000 O   0  0  0  0  0  0  0  0  0  0  0  0
  1  2  1  0  0  0  0 
  1  3  1  0  0  0  0 
  2  4  1  0  0  0  0 
  3  5  1  0  0  0  0 
  3  6  1  0  0  0  0 
  4  7  1  0  0  0  0 
  5  6  1  0  0  0  0 
  7  8  1  0  0  0  0 
  8  9  1  0  0  0  0 
  9 10  1  0  0  0  0 
 10 11  1  0  0  0  0 
 11 12  1  0  0  0  0 
 12 13  1  0  0  0  0 
 12 14  1  0  0  0  0 
 13 14  1  0  0  0  0 
M  END
> <Name>
Oxirane, 2,2'-(1,4-butanediylbis(oxymethylene))bis-

> <Source>
DSSTox2DMolFile

> <Tox>
2.251

> <CAS>
2425-79-8

$$$$

  CDK

 16 16  0  0  0  0  0  0  0  0999 V2000
    4.0666    2.6433    0.0000 C   0  0  0  0  0  0  0  0  0  0  0  0
    3.0499    2.6433    0.0000 C   0  0  0  0  0  0  0  0  0  0  0  0
    4.5241    3.4566    0.0000 C   0  0  0  0  0  0  0  0  0  0  0  0
    2.5416    3.4566    0.0000 C   0  0  0  0  0  0  0  0  0  0  0  0
    4.0666    4.3207    0.0000 C   0  0  0  0  0  0  0  0  0  0  0  0
    5.5407    3.4566    0.0000 O   0  0  0  0  0  0  0  0  0  0  0  0
    3.0499    4.3207    0.0000 C   0  0  0  0  0  0  0  0  0  0  0  0
    1.4741    3.4566    0.0000 C   0  0  0  0  0  0  0  0  0  0  0  0
    6.0490    2.6433    0.0000 C   0  0  0  0  0  0  0  0  0  0  0  0
    1.0166    2.6433    0.0000 C   0  0  0  0  0  0  0  0  0  0  0  0
    5.5407    1.7791    0.0000 C   0  0  0  0  0  0  0  0  0  0  0  0
    1.5250    1.7791    0.0000 N   0  0  0  0  0  0  0  0  0  0  0  0
    0.0000    2.6433    0.0000 O   0  0  0  0  0  0  0  0  0  0  0  0
    6.0490    0.8641    0.0000 C   0  0  0  0  0  0  0  0  0  0  0  0
    1.0166    0.8641    0.0000 O   0  0  0  0  0  0  0  0  0  0  0  0
    5.5407    0.0000    0.0000 C   0  0  0  0  0  0  0  0  0  0  0  0
  2  1  2  0  0  0  0 
  1  3  1  0  0  0  0 
  4  2  1  0  0  0  0 
  3  5  2  0  0  0  0 
  3  6  1  0  0  0  0 
  7  4  2  0  0  0  0 
  4  8  1  0  0  0  0 
  5  7  1  0  0  0  0 
  6  9  1  0  0  0  0 
  8 10  1  0  0  0  0 
 11  9  1  0  0  0  0 
 10 12  1  0  0  0  0 
 10 13  2  0  0  0  0 
 14 11  1  0  0  0  0 
 15 12  1  0  0  0  0 
 16 14  1  0  0  0  0 
M  END
> <Name>
Benzeneacetamide, 4-butoxy-N-hydroxy- (9CI)

> <Source>
NIST2DMolFile

> <Tox>
1.821

> <CAS>
2438-72-4

$$$$

  CDK

 10  9  0  0  0  0  0  0  0  0999 V2000
    1.9962   -1.1511    0.0000 C   0  0  0  0  0  0  0  0  0  0  0  0
    2.6616   -0.0000    0.0000 O   0  0  0  0  0  0  0  0  0  0  0  0
    0.6654   -1.1511    0.0000 C   0  0  0  0  0  0  0  0  0  0  0  0
    2.6616   -2.3023    0.0000 O   0  0  0  0  0  0  0  0  0  0  0  0
    0.0000   -2.3023    0.0000 C   0  0  0  0  0  0  0  0  0  0  0  0
    3.9924   -2.3023    0.0000 C   0  0  0  0  0  0  0  0  0  0  0  0
    4.6578   -1.1511    0.0000 C   0  0  0  0  0  0  0  0  0  0  0  0
    5.9885   -1.1511    0.0000 N   0  0  0  0  0  0  0  0  0  0  0  0
    6.6539   -0.0000    0.0000 C   0  0  0  0  0  0  0  0  0  0  0  0
    6.6539   -2.3023    0.0000 C   0  0  0  0  0  0  0  0  0  0  0  0
  1  2  2  0  0  0  0 
  1  3  1  0  0  0  0 
  1  4  1  0  0  0  0 
  3  5  2  0  0  0  0 
  4  6  1  0  0  0  0 
  6  7  1  0  0  0  0 
  7  8  1  0  0  0  0 
  8  9  1  0  0  0  0 
  8 10  1  0  0  0  0 
M  END
> <Name>
2-Propenoic acid, 2-(dimethylamino)ethyl ester

> <Source>
DSSTox2DMolFile

> <Tox>
2.498

> <CAS>
2439-35-2

$$$$

  CDK

 12 11  0  0  0  0  0  0  0  0999 V2000
    2.7153   -2.1873    0.7939 C   0  0  0  0  0  0  0  0  0  0  0  0
    1.5602   -1.5763    0.5644 C   0  0  0  0  0  0  0  0  0  0  0  0
    1.2469   -0.9014   -0.7384 C   0  0  0  0  0  0  0  0  0  0  0  0
   -0.1999   -1.1627   -1.1911 C   0  0  0  0  0  0  0  0  0  0  0  0
    1.6058    0.4820   -0.8163 O   0  0  0  0  0  0  0  0  0  0  0  0
   -1.2858   -0.8772   -0.1648 C   0  0  0  0  0  0  0  0  0  0  0  0
    1.3703    1.3929    0.1725 C   0  0  0  0  0  0  0  0  0  0  0  0
   -2.0060    0.4400   -0.4121 C   0  0  0  0  0  0  0  0  0  0  0  0
    1.7130    2.7915   -0.2696 C   0  0  0  0  0  0  0  0  0  0  0  0
    0.9548    1.0621    1.2646 O   0  0  0  0  0  0  0  0  0  0  0  0
   -3.1909    0.6056    0.5285 C   0  0  0  0  0  0  0  0  0  0  0  0
   -4.2640   -0.4273    0.2605 C   0  0  0  0  0  0  0  0  0  0  0  0
  1  2  2  0  0  0  0 
  2  3  1  0  0  0  0 
  3  4  1  0  0  0  0 
  3  5  1  0  0  0  0 
  4  6  1  0  0  0  0 
  7  5  1  0  0  0  0 
  6  8  1  0  0  0  0 
  7  9  1  0  0  0  0 
  7 10  2  0  0  0  0 
  8 11  1  0  0  0  0 
 11 12  1  0  0  0  0 
M  END
> <Name>
1-Octen-3-ol, acetate

> <Source>
DougDB3DMolFile

> <Tox>
2.302

> <CAS>
2442-10-6

$$$$

  CDK

 12 13  0  0  0  0  0  0  0  0999 V2000
    1.8893    3.6760    0.9619 C   0  0  0  0  0  0  0  0  0  0  0  0
    0.4045    3.6994    0.9905 C   0  0  0  0  0  0  0  0  0  0  0  0
    2.5588    2.4584    1.0012 C   0  0  0  0  0  0  0  0  0  0  0  0
    2.6164    4.8742    0.8830 C   0  0  0  0  0  0  0  0  0  0  0  0
    3.9613    2.4515    0.9576 C   0  0  0  0  0  0  0  0  0  0  0  0
    3.9978    4.8632    0.8416 C   0  0  0  0  0  0  0  0  0  0  0  0
    4.6955    3.6475    0.8775 C   0  0  0  0  0  0  0  0  0  0  0  0
    4.5605    1.2134    0.9995 O   0  0  0  0  0  0  0  0  0  0  0  0
    6.1400    3.5816    0.8364 C   0  0  0  0  0  0  0  0  0  0  0  0
    5.9388    1.1611    0.9594 C   0  0  0  0  0  0  0  0  0  0  0  0
    6.7481    2.3829    0.8751 C   0  0  0  0  0  0  0  0  0  0  0  0
    6.2836    0.0000    1.0053 O   0  0  0  0  0  0  0  0  0  0  0  0
  1  2  1  0  0  0  0 
  3  1  2  0  0  0  0 
  1  4  1  0  0  0  0 
  5  3  1  0  0  0  0 
  4  6  2  0  0  0  0 
  5  7  2  0  0  0  0 
  8  5  1  0  0  0  0 
  6  7  1  0  0  0  0 
  7  9  1  0  0  0  0 
 10  8  1  0  0  0  0 
  9 11  2  0  0  0  0 
 11 10  1  0  0  0  0 
 10 12  2  0  0  0  0 
M  END
> <Name>
2H-1-Benzopyran-2-one, 7-methyl-

> <Source>
NIST3DMolFile

> <Tox>
1.625

> <CAS>
2445-83-2

$$$$

  CDK

  4  3  0  0  0  0  0  0  0  0999 V2000
    0.9902    0.0000    0.0000 C   0  0  0  0  0  0  0  0  0  0  0  0
    0.0000    0.0000    0.0000 C   0  0  0  0  0  0  0  0  0  0  0  0
    1.4854    0.8912    0.0000 C   0  0  0  0  0  0  0  0  0  0  0  0
    2.4756    0.8912    0.0000 N   0  0  0  0  0  0  0  0  0  0  0  0
  1  2  3  0  0  0  0 
  1  3  1  0  0  0  0 
  3  4  1  0  0  0  0 
M  END
> <Name>
2-Propyn-1-amine

> <Source>
NIST2DMolFile

> <Tox>
1.944

> <CAS>
2450-71-7

$$$$

  CDK

 13 13  0  0  0  0  0  0  0  0999 V2000
    8.0721   -2.6590    0.0000 C   0  0  0  0  0  0  0  0  0  0  0  0
    6.9114   -1.9943    0.0000 O   0  0  0  0  0  0  0  0  0  0  0  0
    9.2222   -1.9943    0.0000 C   0  0  0  0  0  0  0  0  0  0  0  0
    5.7612   -2.6590    0.0000 C   0  0  0  0  0  0  0  0  0  0  0  0
    9.8869   -0.8441    0.0000 C   0  0  0  0  0  0  0  0  0  0  0  0
   10.5517   -1.9943    0.0000 O   0  0  0  0  0  0  0  0  0  0  0  0
    4.6111   -1.9943    0.0000 C   0  0  0  0  0  0  0  0  0  0  0  0
    4.6111   -0.6648    0.0000 C   0  0  0  0  0  0  0  0  0  0  0  0
    3.4610   -2.6590    0.0000 C   0  0  0  0  0  0  0  0  0  0  0  0
    3.4610   -0.0000    0.0000 C   0  0  0  0  0  0  0  0  0  0  0  0
    2.3003   -1.9943    0.0000 C   0  0  0  0  0  0  0  0  0  0  0  0
    1.1501   -2.6590    0.0000 C   0  0  0  0  0  0  0  0  0  0  0  0
    0.0000   -1.9943    0.0000 C   0  0  0  0  0  0  0  0  0  0  0  0
  1  2  1  0  0  0  0 
  1  3  1  0  0  0  0 
  2  4  1  0  0  0  0 
  3  5  1  0  0  0  0 
  3  6  1  0  0  0  0 
  4  7  1  0  0  0  0 
  5  6  1  0  0  0  0 
  7  8  1  0  0  0  0 
  7  9  1  0  0  0  0 
  8 10  1  0  0  0  0 
  9 11  1  0  0  0  0 
 11 12  1  0  0  0  0 
 12 13  1  0  0  0  0 
M  END
> <Name>
Propane, 1,2-epoxy-3-((2-ethylhexyl)oxy)-

> <Source>
DSSTox2DMolFile

> <Tox>
1.378

> <CAS>
2461-15-6

$$$$

  CDK

 17 17  0  0  0  0  0  0  0  0999 V2000
   -2.4764    0.2983   -0.1363 P   0  0  0  0  0  0  0  0  0  0  0  0
   -1.9992   -0.2206   -1.6731 O   0  0  0  0  0  0  0  0  0  0  0  0
   -1.0535   -0.0430    0.7866 O   0  0  0  0  0  0  0  0  0  0  0  0
   -2.2304    1.9243   -0.5387 O   0  0  0  0  0  0  0  0  0  0  0  0
   -4.0729   -0.3151    0.7367 S   0  0  0  0  0  0  0  0  0  0  0  0
   -2.0651   -1.5790   -1.9770 C   0  0  0  0  0  0  0  0  0  0  0  0
    0.2530    0.1180    0.4775 C   0  0  0  0  0  0  0  0  0  0  0  0
   -2.6935    2.9160    0.3227 C   0  0  0  0  0  0  0  0  0  0  0  0
    1.0674   -1.0285    0.3695 C   0  0  0  0  0  0  0  0  0  0  0  0
    0.8427    1.3910    0.3882 C   0  0  0  0  0  0  0  0  0  0  0  0
    2.4356   -0.9006    0.1645 C   0  0  0  0  0  0  0  0  0  0  0  0
    0.4155   -2.5771    0.5053 Cl  0  0  0  0  0  0  0  0  0  0  0  0
    2.2075    1.5117    0.1816 C   0  0  0  0  0  0  0  0  0  0  0  0
    3.0124    0.3702    0.0646 C   0  0  0  0  0  0  0  0  0  0  0  0
    4.4835    0.5087   -0.1620 N   0  0  0  0  0  0  0  0  0  0  0  0
    5.1643   -0.4894   -0.2940 O   0  0  0  0  0  0  0  0  0  0  0  0
    4.9779    1.6179   -0.2127 O   0  0  0  0  0  0  0  0  0  0  0  0
  1  2  1  0  0  0  0 
  1  3  1  0  0  0  0 
  1  4  1  0  0  0  0 
  1  5  2  0  0  0  0 
  2  6  1  0  0  0  0 
  3  7  1  0  0  0  0 
  4  8  1  0  0  0  0 
  7  9  1  0  0  0  0 
  7 10  2  0  0  0  0 
  9 11  2  0  0  0  0 
  9 12  1  0  0  0  0 
 13 10  1  0  0  0  0 
 11 14  1  0  0  0  0 
 14 13  2  0  0  0  0 
 14 15  1  0  0  0  0 
 15 16  2  0  0  0  0 
 15 17  1  0  0  0  0 
M  CHG  1  15   1
M  CHG  1  17  -1
M  END
> <Name>
Phosphorothioic acid, O-(2-chloro-4-nitrophenyl) O,O-dimethyl ester

> <Source>
DougDB3DMolFile

> <Tox>
3.020

> <CAS>
2463-84-5

$$$$

  CDK

  8  7  0  0  0  0  0  0  0  0999 V2000
    0.9216   -0.5967   -0.0055 C   0  0  0  0  0  0  0  0  0  0  0  0
   -0.5065   -1.1032   -0.0221 C   0  0  0  0  0  0  0  0  0  0  0  0
    1.9134   -1.2939    0.0077 O   0  0  0  0  0  0  0  0  0  0  0  0
    1.0337    0.7619   -0.0097 O   0  0  0  0  0  0  0  0  0  0  0  0
   -1.5917   -0.0137    0.0021 N   0  0  0  0  0  0  0  0  0  0  0  0
    2.3247    1.3376    0.0035 C   0  0  0  0  0  0  0  0  0  0  0  0
   -2.0011    0.3658    1.0763 O   0  0  0  0  0  0  0  0  0  0  0  0
   -2.0259    0.3872   -1.0544 O   0  0  0  0  0  0  0  0  0  0  0  0
  1  2  1  0  0  0  0 
  1  3  2  0  0  0  0 
  1  4  1  0  0  0  0 
  2  5  1  0  0  0  0 
  4  6  1  0  0  0  0 
  5  7  2  0  0  0  0 
  5  8  1  0  0  0  0 
M  CHG  1   5   1
M  CHG  1   8  -1
M  END
> <Name>
Acetic acid, nitro-, methyl ester

> <Source>
DougDB3DMolFile

> <Tox>
1.499

> <CAS>
2483-57-0

$$$$

  CDK

 12 12  0  0  0  0  0  0  0  0999 V2000
    0.0000    0.0000    0.0000 C   0  0  0  0  0  0  0  0  0  0  0  0
    0.6400    1.2000    0.0000 N   0  0  0  0  0  0  0  0  0  0  0  0
   -1.4000   -0.0600    0.0000 C   0  0  0  0  0  0  0  0  0  0  0  0
    0.7400   -1.2000    0.0000 C   0  0  0  0  0  0  0  0  0  0  0  0
    1.7600    1.3800   -0.7600 C   0  0  0  0  0  0  0  0  0  0  0  0
   -2.0600   -1.3000    0.0000 C   0  0  0  0  0  0  0  0  0  0  0  0
    0.0800   -2.4400    0.0000 C   0  0  0  0  0  0  0  0  0  0  0  0
    2.4000    2.6000   -0.7400 N   0  0  0  0  0  0  0  0  0  0  0  0
    2.2000    0.4800   -1.4200 O   0  0  0  0  0  0  0  0  0  0  0  0
   -1.3200   -2.4800    0.0000 C   0  0  0  0  0  0  0  0  0  0  0  0
   -2.2200   -4.1800    0.0000 As  0  0  0  0  0  0  0  0  0  0  0  0
   -1.1000   -5.4000    0.0000 O   0  0  0  0  0  0  0  0  0  0  0  0
  1  2  1  0  0  0  0 
  1  3  2  0  0  0  0 
  1  4  1  0  0  0  0 
  2  5  1  0  0  0  0 
  3  6  1  0  0  0  0 
  7  4  2  0  0  0  0 
  5  8  1  0  0  0  0 
  5  9  2  0  0  0  0 
  6 10  2  0  0  0  0 
 10  7  1  0  0  0  0 
 10 11  1  0  0  0  0 
 11 12  2  0  0  0  0 
M  END
> <Name>
Urea, (4-arsenosophenyl)- (9CI)

> <Source>
NIH3DMolFile

> <Tox>
2.647

> <CAS>
2490-89-3

$$$$

  CDK

 16 15  0  0  0  0  0  0  0  0999 V2000
    3.4662    2.5620    0.0000 S   0  0  0  0  0  0  0  0  0  0  0  0
    2.4615    2.5620    0.0000 P   0  0  0  0  0  0  0  0  0  0  0  0
    3.9685    3.3657    0.0000 C   0  0  0  0  0  0  0  0  0  0  0  0
    1.4568    2.5620    0.0000 O   0  0  0  0  0  0  0  0  0  0  0  0
    2.4615    1.5070    0.0000 O   0  0  0  0  0  0  0  0  0  0  0  0
    2.4615    3.5164    0.0000 O   0  0  0  0  0  0  0  0  0  0  0  0
    4.9732    3.3657    0.0000 C   0  0  0  0  0  0  0  0  0  0  0  0
    0.9545    3.4159    0.0000 C   0  0  0  0  0  0  0  0  0  0  0  0
    1.6075    1.0047    0.0000 C   0  0  0  0  0  0  0  0  0  0  0  0
    5.4756    4.2699    0.0000 S   0  0  0  0  0  0  0  0  0  0  0  0
    0.0000    3.4159    0.0000 C   0  0  0  0  0  0  0  0  0  0  0  0
    1.6075    0.0000    0.0000 C   0  0  0  0  0  0  0  0  0  0  0  0
    5.9779    5.1239    0.0000 C   0  0  0  0  0  0  0  0  0  0  0  0
    6.3295    3.7173    0.0000 O   0  0  0  0  0  0  0  0  0  0  0  0
    4.6216    4.7723    0.0000 O   0  0  0  0  0  0  0  0  0  0  0  0
    7.0328    5.1239    0.0000 C   0  0  0  0  0  0  0  0  0  0  0  0
  1  2  1  0  0  0  0 
  1  3  1  0  0  0  0 
  2  4  1  0  0  0  0 
  2  5  1  0  0  0  0 
  2  6  2  0  0  0  0 
  3  7  1  0  0  0  0 
  4  8  1  0  0  0  0 
  5  9  1  0  0  0  0 
  7 10  1  0  0  0  0 
  8 11  1  0  0  0  0 
  9 12  1  0  0  0  0 
 10 13  1  0  0  0  0 
 10 14  2  0  0  0  0 
 10 15  2  0  0  0  0 
 13 16  1  0  0  0  0 
M  END
> <Name>
Phosphorothioic acid, O,O-diethyl S-(2-(ethylsulfonyl)ethyl) ester

> <Source>
NIST2DMolFile

> <Tox>
5.184

> <CAS>
2496-91-5

$$$$

  CDK

 15 14  0  0  0  0  0  0  0  0999 V2000
    3.5425    2.5303    0.0000 S   0  0  0  0  0  0  0  0  0  0  0  0
    2.4797    2.5303    0.0000 P   0  0  0  0  0  0  0  0  0  0  0  0
    4.0485    3.3907    0.0000 C   0  0  0  0  0  0  0  0  0  0  0  0
    1.5688    2.5303    0.0000 O   0  0  0  0  0  0  0  0  0  0  0  0
    2.4797    1.5182    0.0000 O   0  0  0  0  0  0  0  0  0  0  0  0
    2.4797    3.5425    0.0000 S   0  0  0  0  0  0  0  0  0  0  0  0
    5.0101    3.3907    0.0000 C   0  0  0  0  0  0  0  0  0  0  0  0
    1.0121    3.3907    0.0000 C   0  0  0  0  0  0  0  0  0  0  0  0
    1.6700    0.9615    0.0000 C   0  0  0  0  0  0  0  0  0  0  0  0
    5.6174    4.2510    0.0000 S   0  0  0  0  0  0  0  0  0  0  0  0
    0.0000    3.3907    0.0000 C   0  0  0  0  0  0  0  0  0  0  0  0
    1.6700    0.0000    0.0000 C   0  0  0  0  0  0  0  0  0  0  0  0
    6.6295    4.2510    0.0000 C   0  0  0  0  0  0  0  0  0  0  0  0
    5.1113    5.1113    0.0000 O   0  0  0  0  0  0  0  0  0  0  0  0
    7.1356    5.1113    0.0000 C   0  0  0  0  0  0  0  0  0  0  0  0
  1  2  1  0  0  0  0 
  1  3  1  0  0  0  0 
  2  4  1  0  0  0  0 
  2  5  1  0  0  0  0 
  2  6  2  0  0  0  0 
  3  7  1  0  0  0  0 
  4  8  1  0  0  0  0 
  5  9  1  0  0  0  0 
  7 10  1  0  0  0  0 
  8 11  1  0  0  0  0 
  9 12  1  0  0  0  0 
 10 13  1  0  0  0  0 
 10 14  2  0  0  0  0 
 13 15  1  0  0  0  0 
M  END
> <Name>
Phosphorodithioic acid, O,O-diethyl S-((ethylsulfinyl)ethyl) ester

> <Source>
NIST2DMolFile

> <Tox>
4.919

> <CAS>
2497-07-6

$$$$

  CDK

  9  8  0  0  0  0  0  0  0  0999 V2000
    0.0000    1.7893    0.0000 C   0  0  0  0  0  0  0  0  0  0  0  0
    0.9940    1.7893    0.0000 C   0  0  0  0  0  0  0  0  0  0  0  0
    1.4911    0.9443    0.0000 O   0  0  0  0  0  0  0  0  0  0  0  0
    2.4354    0.9443    0.0000 P   0  0  0  0  0  0  0  0  0  0  0  0
    2.4354    0.0000    0.0000 C   0  0  0  0  0  0  0  0  0  0  0  0
    2.4354    2.0378    0.0000 O   0  0  0  0  0  0  0  0  0  0  0  0
    3.4792    0.9443    0.0000 S   0  0  0  0  0  0  0  0  0  0  0  0
    3.9265    1.7893    0.0000 C   0  0  0  0  0  0  0  0  0  0  0  0
    4.9702    1.7893    0.0000 C   0  0  0  0  0  0  0  0  0  0  0  0
  1  2  1  0  0  0  0 
  2  3  1  0  0  0  0 
  3  4  1  0  0  0  0 
  4  5  1  0  0  0  0 
  4  6  2  0  0  0  0 
  4  7  1  0  0  0  0 
  7  8  1  0  0  0  0 
  8  9  1  0  0  0  0 
M  END
> <Name>
Phosphonothioic acid, methyl-, O,S-diethyl ester

> <Source>
NIST2DMolFile

> <Tox>
4.448

> <CAS>
2511-10-6

$$$$

  CDK

 10  9  0  0  0  0  0  0  0  0999 V2000
    1.7214   -0.9653   -0.5785 S   0  0  0  0  0  0  0  0  0  0  0  0
    2.6821    0.8379   -0.1024 P   0  0  0  0  0  0  0  0  0  0  0  0
    2.2248   -2.1248    0.7082 C   0  0  0  0  0  0  0  0  0  0  0  0
    2.1055    1.4526    1.2839 O   0  0  0  0  0  0  0  0  0  0  0  0
    4.1750    0.6462   -0.0546 O   0  0  0  0  0  0  0  0  0  0  0  0
    2.2372    2.0600   -1.3368 C   0  0  0  0  0  0  0  0  0  0  0  0
    1.5914   -3.4838    0.4782 C   0  0  0  0  0  0  0  0  0  0  0  0
    0.7237    1.7178    1.4453 C   0  0  0  0  0  0  0  0  0  0  0  0
    2.8556    3.4137   -1.0583 C   0  0  0  0  0  0  0  0  0  0  0  0
    0.4883    2.2817    2.8303 C   0  0  0  0  0  0  0  0  0  0  0  0
  1  2  1  0  0  0  0 
  1  3  1  0  0  0  0 
  2  4  1  0  0  0  0 
  2  5  2  0  0  0  0 
  2  6  1  0  0  0  0 
  3  7  1  0  0  0  0 
  4  8  1  0  0  0  0 
  6  9  1  0  0  0  0 
  8 10  1  0  0  0  0 
M  END
> <Name>
Phosphonothioic acid, ethyl-, O,S-diethyl ester

> <Source>
Chemidplus3DMolFile

> <Tox>
4.374

> <CAS>
2511-11-7

$$$$

  CDK

 15 15  0  0  0  0  0  0  0  0999 V2000
    7.1509   -2.2923    0.0000 Si  0  0  0  0  0  0  0  0  0  0  0  0
    5.9965   -1.6362    0.0000 O   0  0  0  0  0  0  0  0  0  0  0  0
    8.3053   -2.9650    0.0000 O   0  0  0  0  0  0  0  0  0  0  0  0
    7.8070   -1.1378    0.0000 O   0  0  0  0  0  0  0  0  0  0  0  0
    6.4782   -3.4467    0.0000 C   0  0  0  0  0  0  0  0  0  0  0  0
    4.8420   -2.2923    0.0000 C   0  0  0  0  0  0  0  0  0  0  0  0
    8.3053   -4.2939    0.0000 C   0  0  0  0  0  0  0  0  0  0  0  0
    7.1509   -0.0000    0.0000 C   0  0  0  0  0  0  0  0  0  0  0  0
    5.1493   -3.4467    0.0000 C   0  0  0  0  0  0  0  0  0  0  0  0
    4.4932   -4.6012    0.0000 C   0  0  0  0  0  0  0  0  0  0  0  0
    3.1560   -4.6012    0.0000 O   0  0  0  0  0  0  0  0  0  0  0  0
    2.4833   -5.7556    0.0000 C   0  0  0  0  0  0  0  0  0  0  0  0
    1.1544   -5.7556    0.0000 C   0  0  0  0  0  0  0  0  0  0  0  0
    0.0000   -5.0829    0.0000 O   0  0  0  0  0  0  0  0  0  0  0  0
    0.0000   -6.4117    0.0000 C   0  0  0  0  0  0  0  0  0  0  0  0
  1  2  1  0  0  0  0 
  1  3  1  0  0  0  0 
  1  4  1  0  0  0  0 
  1  5  1  0  0  0  0 
  2  6  1  0  0  0  0 
  3  7  1  0  0  0  0 
  4  8  1  0  0  0  0 
  5  9  1  0  0  0  0 
  9 10  1  0  0  0  0 
 10 11  1  0  0  0  0 
 11 12  1  0  0  0  0 
 12 13  1  0  0  0  0 
 14 13  1  0  0  0  0 
 13 15  1  0  0  0  0 
 14 15  1  0  0  0  0 
M  END
> <Name>
Silane, trimethoxy(3-(oxiranylmethoxy)propyl)-

> <Source>
DSSTox2DMolFile

> <Tox>
0.990

> <CAS>
2530-83-8

$$$$

  CDK

 17 17  0  0  0  0  0  0  0  0999 V2000
    0.0836   -1.1255    4.6588 S   0  0  0  0  0  0  0  0  0  0  0  0
   -0.4955   -0.3473    2.7949 P   0  0  0  0  0  0  0  0  0  0  0  0
   -1.4576   -1.4767    5.5242 C   0  0  0  0  0  0  0  0  0  0  0  0
    0.8304   -0.0834    1.8912 O   0  0  0  0  0  0  0  0  0  0  0  0
   -1.3035   -1.4635    1.9322 O   0  0  0  0  0  0  0  0  0  0  0  0
   -1.3122    0.9047    2.9856 O   0  0  0  0  0  0  0  0  0  0  0  0
   -1.1976   -2.0187    6.8242 N   0  0  0  0  0  0  0  0  0  0  0  0
    0.6695    0.3957    0.5669 C   0  0  0  0  0  0  0  0  0  0  0  0
   -0.7000   -2.7135    1.6463 C   0  0  0  0  0  0  0  0  0  0  0  0
   -1.0616   -1.2106    7.9157 N   0  0  0  0  0  0  0  0  0  0  0  0
   -1.0489   -3.3437    7.1789 C   0  0  0  0  0  0  0  0  0  0  0  0
    2.0343    0.5617   -0.0667 C   0  0  0  0  0  0  0  0  0  0  0  0
   -1.6647   -3.5531    0.8364 C   0  0  0  0  0  0  0  0  0  0  0  0
   -0.8401   -2.0508    8.8729 C   0  0  0  0  0  0  0  0  0  0  0  0
   -0.8146   -3.3561    8.5261 O   0  0  0  0  0  0  0  0  0  0  0  0
   -1.1047   -4.3381    6.4731 O   0  0  0  0  0  0  0  0  0  0  0  0
   -0.6141   -1.7380   10.3009 C   0  0  0  0  0  0  0  0  0  0  0  0
  1  2  1  0  0  0  0 
  1  3  1  0  0  0  0 
  2  4  1  0  0  0  0 
  2  5  1  0  0  0  0 
  2  6  2  0  0  0  0 
  7  3  1  0  0  0  0 
  4  8  1  0  0  0  0 
  5  9  1  0  0  0  0 
  7 10  1  0  0  0  0 
  7 11  1  0  0  0  0 
  8 12  1  0  0  0  0 
  9 13  1  0  0  0  0 
 10 14  2  0  0  0  0 
 15 11  1  0  0  0  0 
 16 11  2  0  0  0  0 
 15 14  1  0  0  0  0 
 14 17  1  0  0  0  0 
M  END
> <Name>
Phosphorothioic acid, O,O-diethyl ester, S-ester with 3-(mercaptomethyl)-5-methyl-1,3,4-oxadiazol-2(3H)-one

> <Source>
Chemidplus3DMolFile

> <Tox>
5.451

> <CAS>
2544-52-7

$$$$

  CDK

 11 11  0  0  0  0  0  0  0  0999 V2000
    5.7582   -0.0000    0.0000 C   0  0  0  0  0  0  0  0  0  0  0  0
    5.7582   -1.3272    0.0000 C   0  0  0  0  0  0  0  0  0  0  0  0
    4.6107   -1.9977    0.0000 C   0  0  0  0  0  0  0  0  0  0  0  0
    6.9126   -1.9977    0.0000 O   0  0  0  0  0  0  0  0  0  0  0  0
    3.4563   -1.3272    0.0000 C   0  0  0  0  0  0  0  0  0  0  0  0
    2.3019   -1.9977    0.0000 C   0  0  0  0  0  0  0  0  0  0  0  0
    1.1544   -1.3272    0.0000 C   0  0  0  0  0  0  0  0  0  0  0  0
    2.3019   -3.3250    0.0000 C   0  0  0  0  0  0  0  0  0  0  0  0
    0.0000   -1.9977    0.0000 C   0  0  0  0  0  0  0  0  0  0  0  0
    1.1544   -3.9817    0.0000 C   0  0  0  0  0  0  0  0  0  0  0  0
    0.0000   -3.3250    0.0000 C   0  0  0  0  0  0  0  0  0  0  0  0
  1  2  1  0  0  0  0 
  2  3  1  0  0  0  0 
  2  4  2  0  0  0  0 
  3  5  1  0  0  0  0 
  5  6  1  0  0  0  0 
  6  7  2  0  0  0  0 
  6  8  1  0  0  0  0 
  7  9  1  0  0  0  0 
  8 10  2  0  0  0  0 
  9 11  2  0  0  0  0 
 10 11  1  0  0  0  0 
M  END
> <Name>
2-Butanone, 4-phenyl-

> <Source>
DSSTox2DMolFile

> <Tox>
1.666

> <CAS>
2550-26-7

$$$$

  CDK

 10 10  0  0  0  0  0  0  0  0999 V2000
    1.3484   -0.1733    0.2253 C   0  0  0  0  0  0  0  0  0  0  0  0
    0.2171    0.6973   -0.3214 C   0  0  0  0  0  0  0  0  0  0  0  0
    1.1167   -1.6318   -0.1692 C   0  0  0  0  0  0  0  0  0  0  0  0
    2.7154    0.2922   -0.2986 C   0  0  0  0  0  0  0  0  0  0  0  0
   -1.1442    0.2189    0.1845 C   0  0  0  0  0  0  0  0  0  0  0  0
   -0.2382   -2.1186    0.3174 C   0  0  0  0  0  0  0  0  0  0  0  0
    3.2275    1.5410    0.2907 N   0  0  0  0  0  0  0  0  0  0  0  0
   -1.3593   -1.2408   -0.2146 C   0  0  0  0  0  0  0  0  0  0  0  0
   -2.2497    1.1245   -0.3791 C   0  0  0  0  0  0  0  0  0  0  0  0
   -3.5635    0.9998    0.2748 N   0  0  0  0  0  0  0  0  0  0  0  0
  1  2  1  0  0  0  0 
  1  3  1  0  0  0  0 
  1  4  1  0  0  0  0 
  2  5  1  0  0  0  0 
  6  3  1  0  0  0  0 
  4  7  1  0  0  0  0 
  5  8  1  0  0  0  0 
  5  9  1  0  0  0  0 
  8  6  1  0  0  0  0 
  9 10  1  0  0  0  0 
M  END
> <Name>
1,3-Cyclohexanebis(methylamine) (8CI)

> <Source>
DougDB3DMolFile

> <Tox>
2.209

> <CAS>
2579-20-6

$$$$

  CDK

 17 17  0  0  0  0  0  0  0  0999 V2000
    3.9220    3.4151    0.0000 C   0  0  0  0  0  0  0  0  0  0  0  0
    3.4127    2.5369    0.0000 C   0  0  0  0  0  0  0  0  0  0  0  0
    4.9427    3.4166    0.0000 C   0  0  0  0  0  0  0  0  0  0  0  0
    2.3949    2.5348    0.0000 O   0  0  0  0  0  0  0  0  0  0  0  0
    3.9175    1.6543    0.0000 C   0  0  0  0  0  0  0  0  0  0  0  0
    5.4521    2.5347    0.0000 C   0  0  0  0  0  0  0  0  0  0  0  0
    5.4664    4.3036    0.0000 Cl  0  0  0  0  0  0  0  0  0  0  0  0
    1.4494    2.5600    0.0000 P   0  0  0  0  0  0  0  0  0  0  0  0
    3.4002    0.7644    0.0000 Cl  0  0  0  0  0  0  0  0  0  0  0  0
    4.9422    1.6507    0.0000 C   0  0  0  0  0  0  0  0  0  0  0  0
    6.4699    2.5349    0.0000 Cl  0  0  0  0  0  0  0  0  0  0  0  0
    1.4494    3.6344    0.0000 S   0  0  0  0  0  0  0  0  0  0  0  0
    0.4624    2.5291    0.0000 O   0  0  0  0  0  0  0  0  0  0  0  0
    1.4494    1.4805    0.0000 N   0  0  0  0  0  0  0  0  0  0  0  0
    0.0000    1.6963    0.0000 C   0  0  0  0  0  0  0  0  0  0  0  0
    2.0971    0.8328    0.0000 C   0  0  0  0  0  0  0  0  0  0  0  0
    2.0971    0.0000    0.0000 C   0  0  0  0  0  0  0  0  0  0  0  0
  1  2  1  0  0  0  0 
  3  1  2  0  0  0  0 
  2  4  1  0  0  0  0 
  2  5  2  0  0  0  0 
  6  3  1  0  0  0  0 
  3  7  1  0  0  0  0 
  4  8  1  0  0  0  0 
  5  9  1  0  0  0  0 
  5 10  1  0  0  0  0 
 10  6  2  0  0  0  0 
  6 11  1  0  0  0  0 
  8 12  2  0  0  0  0 
  8 13  1  0  0  0  0 
  8 14  1  0  0  0  0 
 13 15  1  0  0  0  0 
 14 16  1  0  0  0  0 
 16 17  1  0  0  0  0 
M  END
> <Name>
Phosphoramidothioic acid, ethyl-, O-methyl O-(2,4,5-trichlorophenyl) ester

> <Source>
NIST2DMolFile

> <Tox>
2.871

> <CAS>
2591-74-4

$$$$

  CDK

 10 10  0  0  0  0  0  0  0  0999 V2000
    2.6049    0.5108    0.0000 C   0  0  0  0  0  0  0  0  0  0  0  0
    2.6049    1.4812    0.0000 C   0  0  0  0  0  0  0  0  0  0  0  0
    1.7366    0.0000    0.0000 C   0  0  0  0  0  0  0  0  0  0  0  0
    1.7366    1.9920    0.0000 C   0  0  0  0  0  0  0  0  0  0  0  0
    3.4732    1.9920    0.0000 N   0  0  0  0  0  0  0  0  0  0  0  0
    0.8683    0.5108    0.0000 C   0  0  0  0  0  0  0  0  0  0  0  0
    0.8683    1.4812    0.0000 C   0  0  0  0  0  0  0  0  0  0  0  0
    4.3415    1.4812    0.0000 C   0  0  0  0  0  0  0  0  0  0  0  0
    0.0000    0.0000    0.0000 Br  0  0  0  0  0  0  0  0  0  0  0  0
    5.2098    1.9920    0.0000 O   0  0  0  0  0  0  0  0  0  0  0  0
  2  1  2  0  0  0  0 
  1  3  1  0  0  0  0 
  4  2  1  0  0  0  0 
  2  5  1  0  0  0  0 
  3  6  2  0  0  0  0 
  7  4  2  0  0  0  0 
  5  8  1  0  0  0  0 
  6  7  1  0  0  0  0 
  6  9  1  0  0  0  0 
 10  8  2  0  0  0  0 
M  END
> <Name>
Formamide, N-(4-bromophenyl)- (9CI)

> <Source>
NIST2DMolFile

> <Tox>
2.252

> <CAS>
2617-78-9

$$$$

  CDK

 13 14  0  0  0  0  0  0  0  0999 V2000
    0.1090   -2.6744    0.0000 C   0  0  0  0  0  0  0  0  0  0  0  0
   -0.6055   -2.2619    0.0000 C   0  0  0  0  0  0  0  0  0  0  0  0
   -0.6055   -1.4369    0.0000 C   0  0  0  0  0  0  0  0  0  0  0  0
    0.1090   -1.0244    0.0000 C   0  0  0  0  0  0  0  0  0  0  0  0
   -1.3199   -1.0244    0.0000 C   0  0  0  0  0  0  0  0  0  0  0  0
    0.1090   -0.1994    0.0000 C   0  0  0  0  0  0  0  0  0  0  0  0
   -1.3199   -0.1994    0.0000 C   0  0  0  0  0  0  0  0  0  0  0  0
   -0.6055    0.2131    0.0000 C   0  0  0  0  0  0  0  0  0  0  0  0
   -0.6055    1.0381    0.0000 O   0  0  0  0  0  0  0  0  0  0  0  0
    0.1090    1.4506    0.0000 C   0  0  0  0  0  0  0  0  0  0  0  0
    0.8235    1.8631    0.0000 C   0  0  0  0  0  0  0  0  0  0  0  0
    1.6485    1.8631    0.0000 O   0  0  0  0  0  0  0  0  0  0  0  0
    1.2360    2.5776    0.0000 C   0  0  0  0  0  0  0  0  0  0  0  0
  1  2  2  0  0  0  0 
  2  3  1  0  0  0  0 
  3  4  1  0  0  0  0 
  3  5  2  0  0  0  0 
  4  6  2  0  0  0  0 
  7  5  1  0  0  0  0 
  6  8  1  0  0  0  0 
  8  7  2  0  0  0  0 
  8  9  1  0  0  0  0 
  9 10  1  0  0  0  0 
 10 11  1  0  0  0  0 
 11 12  1  0  0  0  0 
 11 13  1  0  0  0  0 
 12 13  1  0  0  0  0 
M  END
> <Name>
Propane, 1,2-epoxy-3-(p-vinylphenoxy)- (7CI,8CI)

> <Source>
Smiles

> <Tox>
2.246

> <CAS>
2653-39-6

$$$$

  CDK

 19 19  0  0  0  0  0  0  0  0999 V2000
    2.4253    3.4981    0.0000 O   0  0  0  0  0  0  0  0  0  0  0  0
    2.4253    2.0988    0.0000 C   0  0  0  0  0  0  0  0  0  0  0  0
    1.2127    1.3992    0.0000 N   0  0  0  0  0  0  0  0  0  0  0  0
    3.6380    1.3992    0.0000 O   0  0  0  0  0  0  0  0  0  0  0  0
    0.0000    2.0988    0.0000 C   0  0  0  0  0  0  0  0  0  0  0  0
    4.8506    2.0988    0.0000 C   0  0  0  0  0  0  0  0  0  0  0  0
    6.0633    1.3992    0.0000 C   0  0  0  0  0  0  0  0  0  0  0  0
    4.8506    3.4981    0.0000 C   0  0  0  0  0  0  0  0  0  0  0  0
    7.2760    2.0988    0.0000 C   0  0  0  0  0  0  0  0  0  0  0  0
    6.0633    4.1977    0.0000 C   0  0  0  0  0  0  0  0  0  0  0  0
    7.2760    3.4981    0.0000 C   0  0  0  0  0  0  0  0  0  0  0  0
    8.4886    1.3992    0.0000 C   0  0  0  0  0  0  0  0  0  0  0  0
    6.0633    5.5969    0.0000 C   0  0  0  0  0  0  0  0  0  0  0  0
    9.7013    2.0988    0.0000 C   0  0  0  0  0  0  0  0  0  0  0  0
    8.4886    0.0000    0.0000 C   0  0  0  0  0  0  0  0  0  0  0  0
    9.7013    0.6996    0.0000 C   0  0  0  0  0  0  0  0  0  0  0  0
    4.8506    6.2965    0.0000 C   0  0  0  0  0  0  0  0  0  0  0  0
    7.2760    6.2965    0.0000 C   0  0  0  0  0  0  0  0  0  0  0  0
    6.0633    6.9961    0.0000 C   0  0  0  0  0  0  0  0  0  0  0  0
  1  2  2  0  0  0  0 
  2  3  1  0  0  0  0 
  2  4  1  0  0  0  0 
  3  5  1  0  0  0  0 
  4  6  1  0  0  0  0 
  6  7  2  0  0  0  0 
  6  8  1  0  0  0  0 
  7  9  1  0  0  0  0 
 10  8  2  0  0  0  0 
  9 11  2  0  0  0  0 
  9 12  1  0  0  0  0 
 11 10  1  0  0  0  0 
 10 13  1  0  0  0  0 
 12 14  1  0  0  0  0 
 12 15  1  0  0  0  0 
 12 16  1  0  0  0  0 
 13 17  1  0  0  0  0 
 13 18  1  0  0  0  0 
 13 19  1  0  0  0  0 
M  END
> <Name>
Phenol, 3,5-bis(1,1-dimethylethyl)-, methylcarbamate (9CI)

> <Source>
IndexNet2DMolFile

> <Tox>
2.165

> <CAS>
2655-19-8

$$$$

  CDK

 20 21  0  0  0  0  0  0  0  0999 V2000
    7.2883    2.9986    0.0000 S   0  0  0  0  0  0  0  0  0  0  0  0
    7.2883    1.5826    0.0000 P   0  0  0  0  0  0  0  0  0  0  0  0
    6.0389    0.9162    0.0000 O   0  0  0  0  0  0  0  0  0  0  0  0
    8.2462    0.6247    0.0000 O   0  0  0  0  0  0  0  0  0  0  0  0
    8.6210    1.2911    0.0000 C   0  0  0  0  0  0  0  0  0  0  0  0
    4.8311    1.5826    0.0000 C   0  0  0  0  0  0  0  0  0  0  0  0
    9.6206    0.9995    0.0000 C   0  0  0  0  0  0  0  0  0  0  0  0
    4.8311    2.9986    0.0000 C   0  0  0  0  0  0  0  0  0  0  0  0
    3.6233    0.9162    0.0000 C   0  0  0  0  0  0  0  0  0  0  0  0
   10.5785    0.0000    0.0000 C   0  0  0  0  0  0  0  0  0  0  0  0
    9.9954    2.3323    0.0000 C   0  0  0  0  0  0  0  0  0  0  0  0
    3.6233    3.7066    0.0000 C   0  0  0  0  0  0  0  0  0  0  0  0
    2.4156    1.5826    0.0000 C   0  0  0  0  0  0  0  0  0  0  0  0
   11.9528    0.3332    0.0000 C   0  0  0  0  0  0  0  0  0  0  0  0
   11.3281    2.6654    0.0000 C   0  0  0  0  0  0  0  0  0  0  0  0
    2.4156    2.9986    0.0000 C   0  0  0  0  0  0  0  0  0  0  0  0
   12.3277    1.7075    0.0000 C   0  0  0  0  0  0  0  0  0  0  0  0
    1.2078    3.7066    0.0000 N   0  0  0  0  0  0  0  0  0  0  0  0
    1.2078    5.0810    0.0000 O   0  0  0  0  0  0  0  0  0  0  0  0
    0.0000    2.9986    0.0000 O   0  0  0  0  0  0  0  0  0  0  0  0
  1  2  2  0  0  0  0 
  2  3  1  0  0  0  0 
  2  4  1  0  0  0  0 
  2  5  1  0  0  0  0 
  3  6  1  0  0  0  0 
  4  7  1  0  0  0  0 
  6  8  2  0  0  0  0 
  6  9  1  0  0  0  0 
  7 10  2  0  0  0  0 
  7 11  1  0  0  0  0 
  8 12  1  0  0  0  0 
 13  9  2  0  0  0  0 
 10 14  1  0  0  0  0 
 15 11  2  0  0  0  0 
 12 16  2  0  0  0  0 
 16 13  1  0  0  0  0 
 14 17  2  0  0  0  0 
 17 15  1  0  0  0  0 
 16 18  1  0  0  0  0 
 18 19  1  0  0  0  0 
 18 20  2  0  0  0  0 
M  CHG  1  18   1
M  CHG  1  19  -1
M  END
> <Name>
Phosphonothioic acid, methyl-, O-(4-nitrophenyl) O-phenyl ester

> <Source>
IndexNet2DMolFile

> <Tox>
4.587

> <CAS>
2665-30-7

$$$$

  CDK

 16 15  0  0  0  0  0  0  0  0999 V2000
   -2.6377    0.2969    0.0000 C   0  0  0  0  0  0  0  0  0  0  0  0
   -1.8388    0.0908    0.0000 C   0  0  0  0  0  0  0  0  0  0  0  0
   -1.6327    0.8896    0.0000 C   0  0  0  0  0  0  0  0  0  0  0  0
   -1.0400   -0.1153    0.0000 S   0  0  0  0  0  0  0  0  0  0  0  0
   -0.4621    0.4734    0.0000 C   0  0  0  0  0  0  0  0  0  0  0  0
    0.1159    1.0622    0.0000 S   0  0  0  0  0  0  0  0  0  0  0  0
    0.9147    0.8561    0.0000 P   0  0  0  0  0  0  0  0  0  0  0  0
    1.1208    1.6549    0.0000 S   0  0  0  0  0  0  0  0  0  0  0  0
    0.7086    0.0572    0.0000 O   0  0  0  0  0  0  0  0  0  0  0  0
    1.7135    0.6500    0.0000 O   0  0  0  0  0  0  0  0  0  0  0  0
   -0.0863   -0.1637    0.0000 C   0  0  0  0  0  0  0  0  0  0  0  0
    1.9345   -0.1449    0.0000 C   0  0  0  0  0  0  0  0  0  0  0  0
    0.1346   -0.9585    0.0000 C   0  0  0  0  0  0  0  0  0  0  0  0
   -0.8812   -0.3846    0.0000 C   0  0  0  0  0  0  0  0  0  0  0  0
    2.7293    0.0760    0.0000 C   0  0  0  0  0  0  0  0  0  0  0  0
    2.1554   -0.9398    0.0000 C   0  0  0  0  0  0  0  0  0  0  0  0
  1  2  1  0  0  0  0 
  2  3  1  0  0  0  0 
  2  4  1  0  0  0  0 
  4  5  1  0  0  0  0 
  5  6  1  0  0  0  0 
  6  7  1  0  0  0  0 
  7  8  2  0  0  0  0 
  7  9  1  0  0  0  0 
  7 10  1  0  0  0  0 
  9 11  1  0  0  0  0 
 10 12  1  0  0  0  0 
 11 13  1  0  0  0  0 
 11 14  1  0  0  0  0 
 12 15  1  0  0  0  0 
 12 16  1  0  0  0  0 
M  END
> <Name>
Phosphorodithioic acid, O,O-diisopropyl S-((isopropylthio)methyl) ester

> <Source>
Smiles

> <Tox>
4.782

> <CAS>
2667-52-9

$$$$

  CDK

  7  6  0  0  0  0  0  0  0  0999 V2000
    0.2988    0.3181    0.0343 C   0  0  0  0  0  0  0  0  0  0  0  0
    1.4370   -0.6314    0.1263 C   0  0  0  0  0  0  0  0  0  0  0  0
    0.4338    1.5223   -0.1327 O   0  0  0  0  0  0  0  0  0  0  0  0
   -1.0317   -0.1937    0.2469 N   0  0  0  0  0  0  0  0  0  0  0  0
    2.6987   -0.2443   -0.0349 C   0  0  0  0  0  0  0  0  0  0  0  0
   -2.1674    0.7304    0.0292 C   0  0  0  0  0  0  0  0  0  0  0  0
   -1.3161   -1.5756   -0.1983 C   0  0  0  0  0  0  0  0  0  0  0  0
  1  2  1  0  0  0  0 
  1  3  2  0  0  0  0 
  1  4  1  0  0  0  0 
  2  5  2  0  0  0  0 
  4  6  1  0  0  0  0 
  4  7  1  0  0  0  0 
M  END
> <Name>
2-Propenamide, N,N-dimethyl-

> <Source>
DougDB3DMolFile

> <Tox>
2.497

> <CAS>
2680-03-7

$$$$

  CDK

 14 14  0  0  0  0  0  0  0  0999 V2000
    2.3117   -3.3221    0.0000 C   0  0  0  0  0  0  0  0  0  0  0  0
    2.3117   -1.9884    0.0000 O   0  0  0  0  0  0  0  0  0  0  0  0
    3.4676   -3.9768    0.0000 O   0  0  0  0  0  0  0  0  0  0  0  0
    1.1720   -3.9768    0.0000 N   0  0  0  0  0  0  0  0  0  0  0  0
    4.6154   -3.3221    0.0000 C   0  0  0  0  0  0  0  0  0  0  0  0
    0.0000   -3.3221    0.0000 C   0  0  0  0  0  0  0  0  0  0  0  0
    4.6154   -1.9884    0.0000 C   0  0  0  0  0  0  0  0  0  0  0  0
    5.7712   -3.9768    0.0000 C   0  0  0  0  0  0  0  0  0  0  0  0
    5.7712   -1.3175    0.0000 C   0  0  0  0  0  0  0  0  0  0  0  0
    6.9109   -3.3221    0.0000 C   0  0  0  0  0  0  0  0  0  0  0  0
    6.9109   -1.9884    0.0000 C   0  0  0  0  0  0  0  0  0  0  0  0
    5.7712   -0.0000    0.0000 C   0  0  0  0  0  0  0  0  0  0  0  0
    8.0830   -3.9768    0.0000 C   0  0  0  0  0  0  0  0  0  0  0  0
    8.0830   -1.3175    0.0000 C   0  0  0  0  0  0  0  0  0  0  0  0
  1  2  2  0  0  0  0 
  1  3  1  0  0  0  0 
  1  4  1  0  0  0  0 
  3  5  1  0  0  0  0 
  4  6  1  0  0  0  0 
  5  7  2  0  0  0  0 
  5  8  1  0  0  0  0 
  7  9  1  0  0  0  0 
  8 10  2  0  0  0  0 
  9 11  2  0  0  0  0 
  9 12  1  0  0  0  0 
 10 11  1  0  0  0  0 
 10 13  1  0  0  0  0 
 11 14  1  0  0  0  0 
M  END
> <Name>
Carbamic acid, methyl-, 3,4,5-trimethylphenyl ester

> <Source>
DSSTox2DMolFile

> <Tox>
3.036

> <CAS>
2686-99-9

$$$$

  CDK

 17 17  0  0  0  0  0  0  0  0999 V2000
    7.0000    0.0000    0.0000 C   0  0  0  0  0  0  0  0  0  0  0  0
    8.4000    0.0000    0.0000 C   0  0  0  0  0  0  0  0  0  0  0  0
    6.3000    1.2124    0.0000 P   0  0  0  0  0  0  0  0  0  0  0  0
    5.6000    2.4249    0.0000 O   0  0  0  0  0  0  0  0  0  0  0  0
    7.5124    1.9124    0.0000 O   0  0  0  0  0  0  0  0  0  0  0  0
    5.0876    0.5124    0.0000 S   0  0  0  0  0  0  0  0  0  0  0  0
    4.2000    2.4249    0.0000 C   0  0  0  0  0  0  0  0  0  0  0  0
    8.7249    1.2124    0.0000 C   0  0  0  0  0  0  0  0  0  0  0  0
    3.5000    1.2124    0.0000 C   0  0  0  0  0  0  0  0  0  0  0  0
    3.5000    3.6373    0.0000 C   0  0  0  0  0  0  0  0  0  0  0  0
    9.9373    1.9124    0.0000 C   0  0  0  0  0  0  0  0  0  0  0  0
    2.1000    1.2124    0.0000 C   0  0  0  0  0  0  0  0  0  0  0  0
    4.2000    0.0000    0.0000 Cl  0  0  0  0  0  0  0  0  0  0  0  0
    2.1000    3.6373    0.0000 C   0  0  0  0  0  0  0  0  0  0  0  0
    1.4000    2.4249    0.0000 C   0  0  0  0  0  0  0  0  0  0  0  0
    1.4000    4.8497    0.0000 Cl  0  0  0  0  0  0  0  0  0  0  0  0
    0.0000    2.4249    0.0000 Br  0  0  0  0  0  0  0  0  0  0  0  0
  1  2  1  0  0  0  0 
  1  3  1  0  0  0  0 
  3  4  1  0  0  0  0 
  3  5  1  0  0  0  0 
  3  6  2  0  0  0  0 
  4  7  1  0  0  0  0 
  5  8  1  0  0  0  0 
  7  9  1  0  0  0  0 
  7 10  2  0  0  0  0 
  8 11  1  0  0  0  0 
  9 12  2  0  0  0  0 
  9 13  1  0  0  0  0 
 14 10  1  0  0  0  0 
 12 15  1  0  0  0  0 
 15 14  2  0  0  0  0 
 14 16  1  0  0  0  0 
 15 17  1  0  0  0  0 
M  END
> <Name>
Phosphonothioic acid, ethyl-, O-(4-bromo-2,5-dichlorophenyl) O-ethyl ester

> <Source>
Name2DMolFile

> <Tox>
4.033

> <CAS>
2720-17-4

$$$$

  CDK

 11 11  0  0  0  0  0  0  0  0999 V2000
    2.3292    1.8590    0.0004 N   0  0  0  0  0  0  0  0  0  0  0  0
    1.1091    1.1625    0.0002 C   0  0  0  0  0  0  0  0  0  0  0  0
    1.0522   -0.2585   -0.0077 C   0  0  0  0  0  0  0  0  0  0  0  0
   -0.0908    1.8832    0.0074 C   0  0  0  0  0  0  0  0  0  0  0  0
   -0.1729   -0.9166   -0.0081 C   0  0  0  0  0  0  0  0  0  0  0  0
    2.2840   -0.8952   -0.0206 O   0  0  0  0  0  0  0  0  0  0  0  0
   -1.3195    1.2312    0.0076 C   0  0  0  0  0  0  0  0  0  0  0  0
   -1.3575   -0.1616    0.0001 C   0  0  0  0  0  0  0  0  0  0  0  0
    2.2863   -2.2993    0.0215 C   0  0  0  0  0  0  0  0  0  0  0  0
   -2.5064   -0.9365    0.0012 O   0  0  0  0  0  0  0  0  0  0  0  0
   -3.7372   -0.2596   -0.0037 C   0  0  0  0  0  0  0  0  0  0  0  0
  1  2  1  0  0  0  0 
  2  3  1  0  0  0  0 
  2  4  2  0  0  0  0 
  3  5  2  0  0  0  0 
  3  6  1  0  0  0  0 
  7  4  1  0  0  0  0 
  5  8  1  0  0  0  0 
  6  9  1  0  0  0  0 
  8  7  2  0  0  0  0 
  8 10  1  0  0  0  0 
 10 11  1  0  0  0  0 
M  END
> <Name>
2,4-Dimethoxyaniline hydrochloride

> <Source>
DougDB3DMolFile

> <Tox>
2.519

> <CAS>
2735-04-8

$$$$

  CDK

 38 41  0  0  0  0  0  0  0  0999 V2000
   10.3551   -5.9908    0.0000 N   0  0  0  0  0  0  0  0  0  0  0  0
   11.4985   -6.6511    0.0000 C   0  0  0  0  0  0  0  0  0  0  0  0
    9.1956   -6.6511    0.0000 C   0  0  0  0  0  0  0  0  0  0  0  0
   10.3551   -4.6541    0.0000 C   0  0  0  0  0  0  0  0  0  0  0  0
   11.4985   -7.9716    0.0000 C   0  0  0  0  0  0  0  0  0  0  0  0
   12.6580   -5.9908    0.0000 C   0  0  0  0  0  0  0  0  0  0  0  0
    9.1956   -7.9716    0.0000 C   0  0  0  0  0  0  0  0  0  0  0  0
    8.0522   -5.9908    0.0000 C   0  0  0  0  0  0  0  0  0  0  0  0
    9.1956   -3.9778    0.0000 C   0  0  0  0  0  0  0  0  0  0  0  0
   10.3551   -8.6480    0.0000 S   0  0  0  0  0  0  0  0  0  0  0  0
   12.6580   -8.6480    0.0000 C   0  0  0  0  0  0  0  0  0  0  0  0
   13.8014   -6.6511    0.0000 C   0  0  0  0  0  0  0  0  0  0  0  0
    8.0522   -8.6480    0.0000 C   0  0  0  0  0  0  0  0  0  0  0  0
    6.8926   -6.6511    0.0000 C   0  0  0  0  0  0  0  0  0  0  0  0
    9.1956   -2.6572    0.0000 C   0  0  0  0  0  0  0  0  0  0  0  0
   13.8014   -7.9716    0.0000 C   0  0  0  0  0  0  0  0  0  0  0  0
   14.9609   -5.9908    0.0000 C   0  0  0  0  0  0  0  0  0  0  0  0
    6.8926   -7.9716    0.0000 C   0  0  0  0  0  0  0  0  0  0  0  0
    8.0522   -1.9969    0.0000 N   0  0  0  0  0  0  0  0  0  0  0  0
   15.6212   -7.1503    0.0000 F   0  0  0  0  0  0  0  0  0  0  0  0
   14.2845   -4.8313    0.0000 F   0  0  0  0  0  0  0  0  0  0  0  0
   16.1043   -5.3144    0.0000 F   0  0  0  0  0  0  0  0  0  0  0  0
    6.8926   -2.6572    0.0000 C   0  0  0  0  0  0  0  0  0  0  0  0
    8.0522   -0.6764    0.0000 C   0  0  0  0  0  0  0  0  0  0  0  0
    5.7492   -1.9969    0.0000 C   0  0  0  0  0  0  0  0  0  0  0  0
    6.8926   -0.0000    0.0000 C   0  0  0  0  0  0  0  0  0  0  0  0
    5.7492   -0.6764    0.0000 N   0  0  0  0  0  0  0  0  0  0  0  0
    4.6058   -0.0000    0.0000 C   0  0  0  0  0  0  0  0  0  0  0  0
    3.4463   -0.6764    0.0000 C   0  0  0  0  0  0  0  0  0  0  0  0
    2.3029   -0.0000    0.0000 O   0  0  0  0  0  0  0  0  0  0  0  0
    1.1434   -0.6764    0.0000 C   0  0  0  0  0  0  0  0  0  0  0  0
    0.0000   -0.0000    0.0000 O   0  0  0  0  0  0  0  0  0  0  0  0
    1.1434   -1.9969    0.0000 C   0  0  0  0  0  0  0  0  0  0  0  0
    2.3029   -2.6572    0.0000 C   0  0  0  0  0  0  0  0  0  0  0  0
    2.3029   -3.9778    0.0000 C   0  0  0  0  0  0  0  0  0  0  0  0
    3.4463   -4.6541    0.0000 C   0  0  0  0  0  0  0  0  0  0  0  0
    3.4463   -5.9908    0.0000 C   0  0  0  0  0  0  0  0  0  0  0  0
    4.6058   -6.6511    0.0000 C   0  0  0  0  0  0  0  0  0  0  0  0
  1  2  1  0  0  0  0 
  1  3  1  0  0  0  0 
  1  4  1  0  0  0  0 
  2  5  2  0  0  0  0 
  2  6  1  0  0  0  0 
  3  7  2  0  0  0  0 
  3  8  1  0  0  0  0 
  4  9  1  0  0  0  0 
 10  5  1  0  0  0  0 
  5 11  1  0  0  0  0 
  6 12  2  0  0  0  0 
 10  7  1  0  0  0  0 
  7 13  1  0  0  0  0 
  8 14  2  0  0  0  0 
  9 15  1  0  0  0  0 
 11 16  2  0  0  0  0 
 17 12  1  0  0  0  0 
 12 16  1  0  0  0  0 
 13 18  2  0  0  0  0 
 14 18  1  0  0  0  0 
 19 15  1  0  0  0  0 
 17 20  1  0  0  0  0 
 17 21  1  0  0  0  0 
 17 22  1  0  0  0  0 
 19 23  1  0  0  0  0 
 19 24  1  0  0  0  0 
 23 25  1  0  0  0  0 
 26 24  1  0  0  0  0 
 27 25  1  0  0  0  0 
 27 26  1  0  0  0  0 
 27 28  1  0  0  0  0 
 28 29  1  0  0  0  0 
 30 29  1  0  0  0  0 
 31 30  1  0  0  0  0 
 31 32  2  0  0  0  0 
 31 33  1  0  0  0  0 
 33 34  1  0  0  0  0 
 34 35  1  0  0  0  0 
 36 35  1  0  0  0  0 
 37 36  1  0  0  0  0 
 37 38  1  0  0  0  0 
M  END
> <Name>
Heptanoic acid, 2-(4-(3-(2-(trifluoromethyl)-10H-phenothiazin-10-yl)propyl)-1-piperazinyl)ethyl ester

> <Source>
DSSTox2DMolFile

> <Tox>
3.378

> <CAS>
2746-81-8

$$$$

  CDK

 15 15  0  0  0  0  0  0  0  0999 V2000
    6.0622    0.7000    0.0000 C   0  0  0  0  0  0  0  0  0  0  0  0
    7.2746    0.0000    0.0000 N   0  0  0  0  0  0  0  0  0  0  0  0
    4.8497    0.0000    0.0000 O   0  0  0  0  0  0  0  0  0  0  0  0
    6.0622    2.1000    0.0000 O   0  0  0  0  0  0  0  0  0  0  0  0
    8.4870    0.7000    0.0000 C   0  0  0  0  0  0  0  0  0  0  0  0
    4.8497    2.8000    0.0000 C   0  0  0  0  0  0  0  0  0  0  0  0
    3.6373    2.1000    0.0000 C   0  0  0  0  0  0  0  0  0  0  0  0
    4.8497    4.2000    0.0000 C   0  0  0  0  0  0  0  0  0  0  0  0
    2.4249    2.8000    0.0000 C   0  0  0  0  0  0  0  0  0  0  0  0
    3.6373    4.9000    0.0000 C   0  0  0  0  0  0  0  0  0  0  0  0
    6.0622    4.9000    0.0000 Cl  0  0  0  0  0  0  0  0  0  0  0  0
    2.4249    4.2000    0.0000 C   0  0  0  0  0  0  0  0  0  0  0  0
    1.2124    2.1000    0.0000 C   0  0  0  0  0  0  0  0  0  0  0  0
    0.0000    2.8000    0.0000 C   0  0  0  0  0  0  0  0  0  0  0  0
    1.2124    0.7000    0.0000 C   0  0  0  0  0  0  0  0  0  0  0  0
  1  2  1  0  0  0  0 
  1  3  2  0  0  0  0 
  1  4  1  0  0  0  0 
  2  5  1  0  0  0  0 
  4  6  1  0  0  0  0 
  6  7  1  0  0  0  0 
  6  8  2  0  0  0  0 
  7  9  2  0  0  0  0 
 10  8  1  0  0  0  0 
  8 11  1  0  0  0  0 
  9 12  1  0  0  0  0 
  9 13  1  0  0  0  0 
 12 10  2  0  0  0  0 
 13 14  1  0  0  0  0 
 13 15  1  0  0  0  0 
M  END
> <Name>
Phenol, 2-chloro-5-(1-methylethyl)-, methylcarbamate (9CI)

> <Source>
Name2DMolFile

> <Tox>
4.035

> <CAS>
2752-81-0

$$$$

  CDK

 14 15  0  0  0  0  0  0  0  0999 V2000
    1.8469    0.8985    0.0000 C   0  0  0  0  0  0  0  0  0  0  0  0
    2.3960    1.7471    0.0000 N   0  0  0  0  0  0  0  0  0  0  0  0
    2.3460    0.0000    0.0000 O   0  0  0  0  0  0  0  0  0  0  0  0
    0.8985    0.8985    0.0000 C   0  0  0  0  0  0  0  0  0  0  0  0
    3.3943    1.7471    0.0000 C   0  0  0  0  0  0  0  0  0  0  0  0
    0.0000    0.3993    0.0000 C   0  0  0  0  0  0  0  0  0  0  0  0
    0.0000    1.3976    0.0000 C   0  0  0  0  0  0  0  0  0  0  0  0
    3.8934    2.5956    0.0000 C   0  0  0  0  0  0  0  0  0  0  0  0
    3.8934    0.8985    0.0000 C   0  0  0  0  0  0  0  0  0  0  0  0
    4.8918    2.5956    0.0000 C   0  0  0  0  0  0  0  0  0  0  0  0
    4.8918    0.8985    0.0000 C   0  0  0  0  0  0  0  0  0  0  0  0
    5.3909    3.4941    0.0000 Cl  0  0  0  0  0  0  0  0  0  0  0  0
    5.3909    1.7471    0.0000 C   0  0  0  0  0  0  0  0  0  0  0  0
    6.3892    1.7471    0.0000 Cl  0  0  0  0  0  0  0  0  0  0  0  0
  1  2  1  0  0  0  0 
  1  3  2  0  0  0  0 
  1  4  1  0  0  0  0 
  2  5  1  0  0  0  0 
  6  4  1  0  0  0  0 
  4  7  1  0  0  0  0 
  8  5  2  0  0  0  0 
  5  9  1  0  0  0  0 
  7  6  1  0  0  0  0 
 10  8  1  0  0  0  0 
  9 11  2  0  0  0  0 
 10 12  1  0  0  0  0 
 13 10  2  0  0  0  0 
 11 13  1  0  0  0  0 
 13 14  1  0  0  0  0 
M  END
> <Name>
Cyclopropanecarboxanilide, 3',4'-dichloro-

> <Source>
NIST2DMolFile

> <Tox>
3.029

> <CAS>
2759-71-9

$$$$

  CDK

  8  8  0  0  0  0  0  0  0  0999 V2000
    0.0000    0.0000    0.0000 C   0  0  0  0  0  0  0  0  0  0  0  0
    0.4000   -1.3800    0.1600 N   0  0  0  0  0  0  0  0  0  0  0  0
    1.2200    0.8800   -0.0600 C   0  0  0  0  0  0  0  0  0  0  0  0
    1.1600    2.2200   -0.2200 C   0  0  0  0  0  0  0  0  0  0  0  0
    2.4800    0.4800    0.0200 O   0  0  0  0  0  0  0  0  0  0  0  0
    2.5400    2.7200   -0.2200 C   0  0  0  0  0  0  0  0  0  0  0  0
    3.3800    1.6000   -0.0800 N   0  0  0  0  0  0  0  0  0  0  0  0
    2.9200    3.8600   -0.3400 O   0  0  0  0  0  0  0  0  0  0  0  0
  1  2  1  0  0  0  0 
  1  3  1  0  0  0  0 
  3  4  2  0  0  0  0 
  3  5  1  0  0  0  0 
  4  6  1  0  0  0  0 
  7  5  1  0  0  0  0 
  6  8  2  0  0  0  0 
  6  7  1  0  0  0  0 
M  END
> <Name>
5-(Aminomethyl)isoxazol-3-ol hydrate

> <Source>
NIH3DMolFile

> <Tox>
3.404

> <CAS>
2763-96-4

$$$$

  CDK

 18 18  0  0  0  0  0  0  0  0999 V2000
    4.5932   -3.9857    0.0000 C   0  0  0  0  0  0  0  0  0  0  0  0
    4.5932   -5.3204    0.0000 C   0  0  0  0  0  0  0  0  0  0  0  0
    3.4426   -3.3137    0.0000 C   0  0  0  0  0  0  0  0  0  0  0  0
    5.7438   -3.3137    0.0000 C   0  0  0  0  0  0  0  0  0  0  0  0
    3.4426   -5.9739    0.0000 C   0  0  0  0  0  0  0  0  0  0  0  0
    2.2920   -3.9857    0.0000 C   0  0  0  0  0  0  0  0  0  0  0  0
    5.0903   -2.1631    0.0000 C   0  0  0  0  0  0  0  0  0  0  0  0
    6.9036   -2.6602    0.0000 N   0  0  0  0  0  0  0  0  0  0  0  0
    6.4158   -4.4735    0.0000 C   0  0  0  0  0  0  0  0  0  0  0  0
    2.2920   -5.3204    0.0000 C   0  0  0  0  0  0  0  0  0  0  0  0
    1.1506   -3.3137    0.0000 C   0  0  0  0  0  0  0  0  0  0  0  0
    8.0542   -3.3137    0.0000 C   0  0  0  0  0  0  0  0  0  0  0  0
    0.4787   -4.4735    0.0000 C   0  0  0  0  0  0  0  0  0  0  0  0
    0.0000   -2.6602    0.0000 N   0  0  0  0  0  0  0  0  0  0  0  0
    1.8133   -2.1631    0.0000 C   0  0  0  0  0  0  0  0  0  0  0  0
    9.2048   -3.9857    0.0000 O   0  0  0  0  0  0  0  0  0  0  0  0
    0.0000   -1.3347    0.0000 C   0  0  0  0  0  0  0  0  0  0  0  0
    0.0000   -0.0000    0.0000 O   0  0  0  0  0  0  0  0  0  0  0  0
  1  2  2  0  0  0  0 
  1  3  1  0  0  0  0 
  1  4  1  0  0  0  0 
  2  5  1  0  0  0  0 
  6  3  2  0  0  0  0 
  4  7  1  0  0  0  0 
  4  8  1  0  0  0  0 
  4  9  1  0  0  0  0 
  5 10  2  0  0  0  0 
 10  6  1  0  0  0  0 
  6 11  1  0  0  0  0 
 12  8  2  0  0  0  0 
 11 13  1  0  0  0  0 
 11 14  1  0  0  0  0 
 11 15  1  0  0  0  0 
 12 16  2  0  0  0  0 
 17 14  2  0  0  0  0 
 17 18  2  0  0  0  0 
M  END
> <Name>
Isocyanic acid, alpha,alpha,alpha',alpha'-tetramethyl-m-xylylene ester (8CI)

> <Source>
DSSTox2DMolFile

> <Tox>
1.725

> <CAS>
2778-42-9

$$$$

  CDK

  8  7  0  0  0  0  0  0  0  0999 V2000
    1.9946   -2.3033    0.0000 C   0  0  0  0  0  0  0  0  0  0  0  0
    3.3259   -2.3033    0.0000 S   0  0  0  0  0  0  0  0  0  0  0  0
    1.3313   -3.4549    0.0000 N   0  0  0  0  0  0  0  0  0  0  0  0
    1.3313   -1.1516    0.0000 N   0  0  0  0  0  0  0  0  0  0  0  0
    0.0000   -3.4549    0.0000 C   0  0  0  0  0  0  0  0  0  0  0  0
    1.9946   -4.6066    0.0000 C   0  0  0  0  0  0  0  0  0  0  0  0
    0.0000   -1.1516    0.0000 C   0  0  0  0  0  0  0  0  0  0  0  0
    1.9946   -0.0000    0.0000 C   0  0  0  0  0  0  0  0  0  0  0  0
  1  2  2  0  0  0  0 
  1  3  1  0  0  0  0 
  1  4  1  0  0  0  0 
  3  5  1  0  0  0  0 
  3  6  1  0  0  0  0 
  4  7  1  0  0  0  0 
  4  8  1  0  0  0  0 
M  END
> <Name>
Urea, 1,1,3,3-tetramethyl-2-thio-

> <Source>
DSSTox2DMolFile

> <Tox>
2.158

> <CAS>
2782-91-4

$$$$

  CDK

 14 14  0  0  0  0  0  0  0  0999 V2000
    2.9538    1.7523    0.0000 C   0  0  0  0  0  0  0  0  0  0  0  0
    3.5045    2.6034    0.0000 N   0  0  0  0  0  0  0  0  0  0  0  0
    2.0026    1.7523    0.0000 O   0  0  0  0  0  0  0  0  0  0  0  0
    3.4545    0.9012    0.0000 O   0  0  0  0  0  0  0  0  0  0  0  0
    4.5058    2.6034    0.0000 C   0  0  0  0  0  0  0  0  0  0  0  0
    1.5019    0.9012    0.0000 N   0  0  0  0  0  0  0  0  0  0  0  0
    5.0065    3.5045    0.0000 C   0  0  0  0  0  0  0  0  0  0  0  0
    5.0065    1.7523    0.0000 C   0  0  0  0  0  0  0  0  0  0  0  0
    0.5006    0.9012    0.0000 C   0  0  0  0  0  0  0  0  0  0  0  0
    6.0078    3.5045    0.0000 C   0  0  0  0  0  0  0  0  0  0  0  0
    6.0078    1.7523    0.0000 C   0  0  0  0  0  0  0  0  0  0  0  0
    0.0000    1.7523    0.0000 C   0  0  0  0  0  0  0  0  0  0  0  0
    0.0000    0.0000    0.0000 C   0  0  0  0  0  0  0  0  0  0  0  0
    6.5084    2.6034    0.0000 C   0  0  0  0  0  0  0  0  0  0  0  0
  1  2  1  0  0  0  0 
  1  3  1  0  0  0  0 
  1  4  2  0  0  0  0 
  2  5  1  0  0  0  0 
  3  6  1  0  0  0  0 
  7  5  2  0  0  0  0 
  5  8  1  0  0  0  0 
  6  9  2  0  0  0  0 
 10  7  1  0  0  0  0 
  8 11  2  0  0  0  0 
  9 12  1  0  0  0  0 
  9 13  1  0  0  0  0 
 14 10  2  0  0  0  0 
 11 14  1  0  0  0  0 
M  END
> <Name>
2-Propanone, O-((phenylamino)carbonyl)oxime (9CI)

> <Source>
NIST2DMolFile

> <Tox>
2.096

> <CAS>
2828-42-4

$$$$

  CDK

 10  9  0  0  0  0  0  0  0  0999 V2000
    4.6087   -0.0000    0.0000 O   0  0  0  0  0  0  0  0  0  0  0  0
    4.6087   -1.3318    0.0000 C   0  0  0  0  0  0  0  0  0  0  0  0
    5.7629   -1.9936    0.0000 C   0  0  0  0  0  0  0  0  0  0  0  0
    3.4626   -1.9936    0.0000 O   0  0  0  0  0  0  0  0  0  0  0  0
    6.9171   -1.3318    0.0000 C   0  0  0  0  0  0  0  0  0  0  0  0
    2.3084   -1.3318    0.0000 C   0  0  0  0  0  0  0  0  0  0  0  0
    6.9171   -0.0000    0.0000 C   0  0  0  0  0  0  0  0  0  0  0  0
    8.0713   -1.9936    0.0000 C   0  0  0  0  0  0  0  0  0  0  0  0
    1.1542   -1.9936    0.0000 C   0  0  0  0  0  0  0  0  0  0  0  0
    0.0000   -1.3318    0.0000 C   0  0  0  0  0  0  0  0  0  0  0  0
  1  2  2  0  0  0  0 
  2  3  1  0  0  0  0 
  2  4  1  0  0  0  0 
  3  5  1  0  0  0  0 
  4  6  1  0  0  0  0 
  5  7  1  0  0  0  0 
  5  8  1  0  0  0  0 
  6  9  1  0  0  0  0 
  9 10  2  0  0  0  0 
M  END
> <Name>
Butanoic acid, 3-methyl-, 2-propenyl ester

> <Source>
DSSTox2DMolFile

> <Tox>
2.791

> <CAS>
2835-39-4

$$$$

  CDK

 16 16  0  0  0  0  0  0  0  0999 V2000
    0.8846   -2.4175    0.0000 Cl  0  0  0  0  0  0  0  0  0  0  0  0
    0.8846   -1.5925    0.0000 C   0  0  0  0  0  0  0  0  0  0  0  0
    1.5990   -1.1800    0.0000 C   0  0  0  0  0  0  0  0  0  0  0  0
    0.1701   -1.1800    0.0000 C   0  0  0  0  0  0  0  0  0  0  0  0
    1.5990   -0.3550    0.0000 C   0  0  0  0  0  0  0  0  0  0  0  0
    0.1701   -0.3550    0.0000 C   0  0  0  0  0  0  0  0  0  0  0  0
   -0.5444   -1.5925    0.0000 O   0  0  0  0  0  0  0  0  0  0  0  0
    0.8846    0.0575    0.0000 C   0  0  0  0  0  0  0  0  0  0  0  0
   -1.2588   -1.1800    0.0000 C   0  0  0  0  0  0  0  0  0  0  0  0
    0.8846    0.8825    0.0000 C   0  0  0  0  0  0  0  0  0  0  0  0
   -1.2588   -0.3550    0.0000 O   0  0  0  0  0  0  0  0  0  0  0  0
   -1.9733   -1.5925    0.0000 N   0  0  0  0  0  0  0  0  0  0  0  0
    0.8846    1.7075    0.0000 C   0  0  0  0  0  0  0  0  0  0  0  0
    0.0596    0.8825    0.0000 C   0  0  0  0  0  0  0  0  0  0  0  0
   -2.6878   -1.1800    0.0000 C   0  0  0  0  0  0  0  0  0  0  0  0
    0.8846    2.5325    0.0000 C   0  0  0  0  0  0  0  0  0  0  0  0
  1  2  1  0  0  0  0 
  2  3  1  0  0  0  0 
  2  4  2  0  0  0  0 
  3  5  2  0  0  0  0 
  4  6  1  0  0  0  0 
  4  7  1  0  0  0  0 
  5  8  1  0  0  0  0 
  8  6  2  0  0  0  0 
  7  9  1  0  0  0  0 
  8 10  1  0  0  0  0 
  9 11  2  0  0  0  0 
  9 12  1  0  0  0  0 
 10 13  1  0  0  0  0 
 10 14  1  0  0  0  0 
 12 15  1  0  0  0  0 
 13 16  1  0  0  0  0 
M  END
> <Name>
Phenol, 2-chloro-5-(1-methylpropyl)-, methylcarbamate (9CI)

> <Source>
Smiles

> <Tox>
3.684

> <CAS>
2917-19-3

$$$$

  CDK

  9  9  0  0  0  0  0  0  0  0999 V2000
    0.0000    1.5001    0.0000 C   0  0  0  0  0  0  0  0  0  0  0  0
    0.8655    2.0012    0.0000 C   0  0  0  0  0  0  0  0  0  0  0  0
    1.7310    1.5052    0.0000 N   0  0  0  0  0  0  0  0  0  0  0  0
    1.7332    0.5030    0.0000 C   0  0  0  0  0  0  0  0  0  0  0  0
    2.5965    2.0063    0.0000 C   0  0  0  0  0  0  0  0  0  0  0  0
    0.8664    0.0000    0.0000 C   0  0  0  0  0  0  0  0  0  0  0  0
    3.4620    1.5103    0.0000 C   0  0  0  0  0  0  0  0  0  0  0  0
    4.3275    2.0114    0.0000 C   0  0  0  0  0  0  0  0  0  0  0  0
    4.3288    1.0113    0.0000 O   0  0  0  0  0  0  0  0  0  0  0  0
  1  2  1  0  0  0  0 
  2  3  1  0  0  0  0 
  3  4  1  0  0  0  0 
  3  5  1  0  0  0  0 
  4  6  1  0  0  0  0 
  5  7  1  0  0  0  0 
  7  8  1  0  0  0  0 
  9  7  1  0  0  0  0 
  8  9  1  0  0  0  0 
M  END
> <Name>
Oxiranemethanamine, N,N-diethyl- (9CI)

> <Source>
NIST2DMolFile

> <Tox>
2.528

> <CAS>
2917-91-1

$$$$

  CDK

  8  7  0  0  0  0  0  0  0  0999 V2000
    3.1013    0.3547    0.0832 C   0  0  0  0  0  0  0  0  0  0  0  0
    1.6657    0.0298   -0.3235 C   0  0  0  0  0  0  0  0  0  0  0  0
    0.6976    1.0777    0.2580 C   0  0  0  0  0  0  0  0  0  0  0  0
    1.3953   -1.2752    0.1444 O   0  0  0  0  0  0  0  0  0  0  0  0
   -0.6960    1.0350   -0.3524 C   0  0  0  0  0  0  0  0  0  0  0  0
   -1.6422    0.0303    0.3233 C   0  0  0  0  0  0  0  0  0  0  0  0
   -3.1016    0.3874    0.0443 C   0  0  0  0  0  0  0  0  0  0  0  0
   -1.3297   -1.2558   -0.1959 O   0  0  0  0  0  0  0  0  0  0  0  0
  1  2  1  0  0  0  0 
  2  3  1  0  0  0  0 
  2  4  1  0  0  0  0 
  3  5  1  0  0  0  0 
  5  6  1  0  0  0  0 
  6  7  1  0  0  0  0 
  6  8  1  0  0  0  0 
M  END
> <Name>
2,4-Hexanediol

> <Source>
DougDB3DMolFile

> <Tox>
1.771

> <CAS>
2935-44-6

$$$$

  CDK

  7  6  0  0  0  0  0  0  0  0999 V2000
    0.0000    1.0042    0.0000 C   0  0  0  0  0  0  0  0  0  0  0  0
    0.8536    1.5063    0.0000 C   0  0  0  0  0  0  0  0  0  0  0  0
    1.7574    1.0042    0.0000 C   0  0  0  0  0  0  0  0  0  0  0  0
    2.6110    1.5063    0.0000 O   0  0  0  0  0  0  0  0  0  0  0  0
    3.4143    1.0042    0.0000 C   0  0  0  0  0  0  0  0  0  0  0  0
    4.3181    1.5063    0.0000 Cl  0  0  0  0  0  0  0  0  0  0  0  0
    3.4143    0.0000    0.0000 O   0  0  0  0  0  0  0  0  0  0  0  0
  1  2  2  0  0  0  0 
  2  3  1  0  0  0  0 
  3  4  1  0  0  0  0 
  4  5  1  0  0  0  0 
  5  6  1  0  0  0  0 
  5  7  2  0  0  0  0 
M  END
> <Name>
Carbonochloridic acid, 2-propenyl ester

> <Source>
NIST2DMolFile

> <Tox>
2.694

> <CAS>
2937-50-0

$$$$

  CDK

  7  6  0  0  0  0  0  0  0  0999 V2000
    1.4065   -0.7399    0.3524 C   0  0  0  0  0  0  0  0  0  0  0  0
    0.6687    0.4862   -0.2155 C   0  0  0  0  0  0  0  0  0  0  0  0
    0.8181   -1.8977   -0.1967 O   0  0  0  0  0  0  0  0  0  0  0  0
   -0.4924    0.9250    0.6800 C   0  0  0  0  0  0  0  0  0  0  0  0
    1.6497    1.6348   -0.3910 C   0  0  0  0  0  0  0  0  0  0  0  0
   -1.6990   -0.0111    0.5846 C   0  0  0  0  0  0  0  0  0  0  0  0
   -2.2557   -0.0716   -0.7015 O   0  0  0  0  0  0  0  0  0  0  0  0
  1  2  1  0  0  0  0 
  1  3  1  0  0  0  0 
  2  4  1  0  0  0  0 
  2  5  1  0  0  0  0 
  4  6  1  0  0  0  0 
  6  7  1  0  0  0  0 
M  END
> <Name>
1,4-Butanediol, 2-methyl-

> <Source>
DougDB3DMolFile

> <Tox>
1.280

> <CAS>
2938-98-9

$$$$

  CDK

 18 18  0  0  0  0  0  0  0  0999 V2000
   -0.5124    0.5124    0.0000 O   0  0  0  0  0  0  0  0  0  0  0  0
    0.7000    1.2124    0.0000 C   0  0  0  0  0  0  0  0  0  0  0  0
   -0.5124   -0.8876    0.0000 C   0  0  0  0  0  0  0  0  0  0  0  0
    0.7000    2.6124    0.0000 O   0  0  0  0  0  0  0  0  0  0  0  0
    1.9124    0.5124    0.0000 C   0  0  0  0  0  0  0  0  0  0  0  0
   -1.7249   -1.5876    0.0000 C   0  0  0  0  0  0  0  0  0  0  0  0
    1.9124   -0.8876    0.0000 O   0  0  0  0  0  0  0  0  0  0  0  0
   -1.7249   -2.9876    0.0000 C   0  0  0  0  0  0  0  0  0  0  0  0
    3.1249   -1.5876    0.0000 C   0  0  0  0  0  0  0  0  0  0  0  0
   -2.9373   -3.6876    0.0000 C   0  0  0  0  0  0  0  0  0  0  0  0
    4.3373   -0.8876    0.0000 C   0  0  0  0  0  0  0  0  0  0  0  0
    3.1249   -2.9876    0.0000 C   0  0  0  0  0  0  0  0  0  0  0  0
   -4.1497   -2.9876    0.0000 Cl  0  0  0  0  0  0  0  0  0  0  0  0
    4.3373    0.5124    0.0000 Cl  0  0  0  0  0  0  0  0  0  0  0  0
    5.5497   -1.5876    0.0000 C   0  0  0  0  0  0  0  0  0  0  0  0
    4.3373   -3.6876    0.0000 C   0  0  0  0  0  0  0  0  0  0  0  0
    5.5497   -2.9876    0.0000 C   0  0  0  0  0  0  0  0  0  0  0  0
    6.7622   -3.6876    0.0000 Cl  0  0  0  0  0  0  0  0  0  0  0  0
  2  1  1  0  0  0  0 
  1  3  1  0  0  0  0 
  4  2  2  0  0  0  0 
  5  2  1  0  0  0  0 
  6  3  1  0  0  0  0 
  7  5  1  0  0  0  0 
  8  6  2  0  0  0  0 
  9  7  1  0  0  0  0 
 10  8  1  0  0  0  0 
 11  9  1  0  0  0  0 
 12  9  2  0  0  0  0 
 10 13  1  0  0  0  0 
 14 11  1  0  0  0  0 
 15 11  2  0  0  0  0 
 12 16  1  0  0  0  0 
 17 15  1  0  0  0  0 
 16 17  2  0  0  0  0 
 18 17  1  0  0  0  0 
M  END
> <Name>
Acetic acid, 2,4-dichlorophenoxy-, 4-chloro-2-butenyl ester

> <Source>
IndexNet2DMolFile

> <Tox>
2.753

> <CAS>
2971-38-2

$$$$

  CDK

 14 14  0  0  0  0  0  0  0  0999 V2000
    1.1265   -0.4263    0.0000 C   0  0  0  0  0  0  0  0  0  0  0  0
    0.3015   -0.4263    0.0000 O   0  0  0  0  0  0  0  0  0  0  0  0
   -0.1110   -1.1407    0.0000 P   0  0  0  0  0  0  0  0  0  0  0  0
   -0.5235   -1.8552    0.0000 S   0  0  0  0  0  0  0  0  0  0  0  0
    0.6035   -1.5532    0.0000 C   0  0  0  0  0  0  0  0  0  0  0  0
   -0.8255   -0.7282    0.0000 S   0  0  0  0  0  0  0  0  0  0  0  0
    1.3179   -1.9657    0.0000 C   0  0  0  0  0  0  0  0  0  0  0  0
   -0.8255    0.0968    0.0000 C   0  0  0  0  0  0  0  0  0  0  0  0
   -0.1110    0.5093    0.0000 C   0  0  0  0  0  0  0  0  0  0  0  0
   -1.5399    0.5093    0.0000 C   0  0  0  0  0  0  0  0  0  0  0  0
   -0.1110    1.3343    0.0000 C   0  0  0  0  0  0  0  0  0  0  0  0
   -1.5399    1.3343    0.0000 C   0  0  0  0  0  0  0  0  0  0  0  0
   -0.8255    1.7468    0.0000 C   0  0  0  0  0  0  0  0  0  0  0  0
   -0.8255    2.5718    0.0000 C   0  0  0  0  0  0  0  0  0  0  0  0
  1  2  1  0  0  0  0 
  2  3  1  0  0  0  0 
  3  4  2  0  0  0  0 
  3  5  1  0  0  0  0 
  3  6  1  0  0  0  0 
  5  7  1  0  0  0  0 
  6  8  1  0  0  0  0 
  8  9  1  0  0  0  0 
  8 10  2  0  0  0  0 
  9 11  2  0  0  0  0 
 12 10  1  0  0  0  0 
 11 13  1  0  0  0  0 
 13 12  2  0  0  0  0 
 13 14  1  0  0  0  0 
M  END
> <Name>
Phosphonodithioic acid, ethyl-, O-methyl S-(4-methylphenyl) ester

> <Source>
Smiles

> <Tox>
3.423

> <CAS>
2984-65-8

$$$$

  CDK

 10  9  0  0  0  0  0  0  0  0999 V2000
    3.4486    1.4994    0.0000 N   0  0  0  0  0  0  0  0  0  0  0  0
    2.5989    0.9996    0.0000 C   0  0  0  0  0  0  0  0  0  0  0  0
    4.3482    0.9996    0.0000 C   0  0  0  0  0  0  0  0  0  0  0  0
    1.7493    1.4994    0.0000 N   0  0  0  0  0  0  0  0  0  0  0  0
    2.5989    0.0000    0.0000 S   0  0  0  0  0  0  0  0  0  0  0  0
    4.3482    0.0000    0.0000 C   0  0  0  0  0  0  0  0  0  0  0  0
    5.1978    1.4994    0.0000 C   0  0  0  0  0  0  0  0  0  0  0  0
    0.8496    0.9996    0.0000 C   0  0  0  0  0  0  0  0  0  0  0  0
    0.8496    0.0000    0.0000 C   0  0  0  0  0  0  0  0  0  0  0  0
    0.0000    1.4994    0.0000 C   0  0  0  0  0  0  0  0  0  0  0  0
  1  2  1  0  0  0  0 
  1  3  1  0  0  0  0 
  2  4  1  0  0  0  0 
  2  5  2  0  0  0  0 
  3  6  1  0  0  0  0 
  3  7  1  0  0  0  0 
  4  8  1  0  0  0  0 
  8  9  1  0  0  0  0 
  8 10  1  0  0  0  0 
M  END
> <Name>
Thiourea, N,N'-bis(1-methylethyl)-

> <Source>
NIST2DMolFile

> <Tox>
2.552

> <CAS>
2986-17-6

$$$$

  CDK

 12 11  0  0  0  0  0  0  0  0999 V2000
   -2.6192    0.3139    0.0000 C   0  0  0  0  0  0  0  0  0  0  0  0
   -2.1275   -0.3485    0.0000 O   0  0  0  0  0  0  0  0  0  0  0  0
   -1.3079   -0.2539    0.0000 Si  0  0  0  0  0  0  0  0  0  0  0  0
   -0.4884   -0.1593    0.0000 C   0  0  0  0  0  0  0  0  0  0  0  0
   -1.4026    0.5657    0.0000 O   0  0  0  0  0  0  0  0  0  0  0  0
   -1.2133   -1.0735    0.0000 O   0  0  0  0  0  0  0  0  0  0  0  0
    0.3312   -0.0646    0.0000 C   0  0  0  0  0  0  0  0  0  0  0  0
   -0.7401    1.0574    0.0000 C   0  0  0  0  0  0  0  0  0  0  0  0
   -0.4562   -1.4013    0.0000 C   0  0  0  0  0  0  0  0  0  0  0  0
    1.1507    0.0300    0.0000 C   0  0  0  0  0  0  0  0  0  0  0  0
    1.9703    0.1246    0.0000 C   0  0  0  0  0  0  0  0  0  0  0  0
    2.7899    0.2193    0.0000 C   0  0  0  0  0  0  0  0  0  0  0  0
  1  2  1  0  0  0  0 
  2  3  1  0  0  0  0 
  3  4  1  0  0  0  0 
  3  5  1  0  0  0  0 
  3  6  1  0  0  0  0 
  4  7  1  0  0  0  0 
  5  8  1  0  0  0  0 
  6  9  1  0  0  0  0 
  7 10  1  0  0  0  0 
 10 11  1  0  0  0  0 
 11 12  1  0  0  0  0 
M  END
> <Name>
Silane, pentyltrimethoxy-

> <Source>
Smiles

> <Tox>
1.589

> <CAS>
2996-95-4

$$$$

  CDK

 12 11  0  0  0  0  0  0  0  0999 V2000
   -0.5674    0.5158    0.0059 C   0  0  0  0  0  0  0  0  0  0  0  0
    0.5676   -0.5178    0.0059 C   0  0  0  0  0  0  0  0  0  0  0  0
   -1.7753   -0.2300    0.0033 O   0  0  0  0  0  0  0  0  0  0  0  0
    1.7752    0.2286    0.0034 O   0  0  0  0  0  0  0  0  0  0  0  0
   -2.9335    0.5916    0.0014 C   0  0  0  0  0  0  0  0  0  0  0  0
    2.9339   -0.5923    0.0014 C   0  0  0  0  0  0  0  0  0  0  0  0
   -4.1391   -0.3430    0.0009 C   0  0  0  0  0  0  0  0  0  0  0  0
    4.1388    0.3432    0.0010 C   0  0  0  0  0  0  0  0  0  0  0  0
   -5.4311    0.4704   -0.0062 C   0  0  0  0  0  0  0  0  0  0  0  0
    5.4315   -0.4691   -0.0063 C   0  0  0  0  0  0  0  0  0  0  0  0
   -6.6618   -0.3393   -0.0056 N   0  0  0  0  0  0  0  0  0  0  0  0
    6.6613    0.3418   -0.0056 N   0  0  0  0  0  0  0  0  0  0  0  0
  1  2  1  0  0  0  0 
  1  3  1  0  0  0  0 
  2  4  1  0  0  0  0 
  3  5  1  0  0  0  0 
  4  6  1  0  0  0  0 
  7  5  1  0  0  0  0 
  8  6  1  0  0  0  0 
  9  7  1  0  0  0  0 
 10  8  1  0  0  0  0 
  9 11  1  0  0  0  0 
 10 12  1  0  0  0  0 
M  END
> <Name>
1-Propanamine, 3,3'-(1,2-ethanediylbis(oxy))bis-

> <Source>
DougDB3DMolFile

> <Tox>
1.803

> <CAS>
2997-01-5

$$$$

  CDK

 13 13  0  0  0  0  0  0  0  0999 V2000
    1.5670    1.8198    0.0000 N   0  0  0  0  0  0  0  0  0  0  0  0
    0.5055    1.8198    0.0000 C   0  0  0  0  0  0  0  0  0  0  0  0
    2.0725    2.5780    0.0000 C   0  0  0  0  0  0  0  0  0  0  0  0
    0.0505    2.5780    0.0000 N   0  0  0  0  0  0  0  0  0  0  0  0
    0.0000    0.9099    0.0000 N   0  0  0  0  0  0  0  0  0  0  0  0
    1.5670    3.4879    0.0000 N   0  0  0  0  0  0  0  0  0  0  0  0
    2.9824    2.5780    0.0000 N   0  0  0  0  0  0  0  0  0  0  0  0
    0.5055    3.4879    0.0000 C   0  0  0  0  0  0  0  0  0  0  0  0
    0.4549    0.0000    0.0000 C   0  0  0  0  0  0  0  0  0  0  0  0
    3.5385    3.4374    0.0000 C   0  0  0  0  0  0  0  0  0  0  0  0
    0.0000    4.3473    0.0000 Cl  0  0  0  0  0  0  0  0  0  0  0  0
    2.9824    4.2967    0.0000 C   0  0  0  0  0  0  0  0  0  0  0  0
    4.5495    3.4374    0.0000 C   0  0  0  0  0  0  0  0  0  0  0  0
  2  1  2  0  0  0  0 
  1  3  1  0  0  0  0 
  4  2  1  0  0  0  0 
  2  5  1  0  0  0  0 
  3  6  2  0  0  0  0 
  3  7  1  0  0  0  0 
  8  4  2  0  0  0  0 
  5  9  1  0  0  0  0 
  6  8  1  0  0  0  0 
  7 10  1  0  0  0  0 
  8 11  1  0  0  0  0 
 10 12  1  0  0  0  0 
 10 13  1  0  0  0  0 
M  END
> <Name>
1,3,5-Triazine-2,4-diamine, 6-chloro-N-methyl-N'-(1-methylethyl)-

> <Source>
NIST2DMolFile

> <Tox>
2.430

> <CAS>
3004-71-5

$$$$

  CDK

 20 22  0  0  0  0  0  0  0  0999 V2000
    5.1188    3.0315    0.0000 C   0  0  0  0  0  0  0  0  0  0  0  0
    4.4230    3.7273    0.0000 O   0  0  0  0  0  0  0  0  0  0  0  0
    5.0691    1.9879    0.0000 N   0  0  0  0  0  0  0  0  0  0  0  0
    6.1127    3.2303    0.0000 C   0  0  0  0  0  0  0  0  0  0  0  0
    5.9636    1.6897    0.0000 C   0  0  0  0  0  0  0  0  0  0  0  0
    4.1745    1.4909    0.0000 C   0  0  0  0  0  0  0  0  0  0  0  0
    6.6097    2.3854    0.0000 C   0  0  0  0  0  0  0  0  0  0  0  0
    6.1624    0.6958    0.0000 O   0  0  0  0  0  0  0  0  0  0  0  0
    3.3297    2.0376    0.0000 C   0  0  0  0  0  0  0  0  0  0  0  0
    4.1745    0.5467    0.0000 C   0  0  0  0  0  0  0  0  0  0  0  0
    2.4351    1.5406    0.0000 C   0  0  0  0  0  0  0  0  0  0  0  0
    3.3297    0.0000    0.0000 C   0  0  0  0  0  0  0  0  0  0  0  0
    2.4351    0.4970    0.0000 C   0  0  0  0  0  0  0  0  0  0  0  0
    1.5903    1.9879    0.0000 N   0  0  0  0  0  0  0  0  0  0  0  0
    0.6958    1.6400    0.0000 C   0  0  0  0  0  0  0  0  0  0  0  0
    1.5406    2.9818    0.0000 C   0  0  0  0  0  0  0  0  0  0  0  0
    0.4970    0.6461    0.0000 O   0  0  0  0  0  0  0  0  0  0  0  0
    0.0000    2.3357    0.0000 C   0  0  0  0  0  0  0  0  0  0  0  0
    2.2861    3.6776    0.0000 O   0  0  0  0  0  0  0  0  0  0  0  0
    0.5467    3.2303    0.0000 C   0  0  0  0  0  0  0  0  0  0  0  0
  1  2  2  0  0  0  0 
  3  1  1  0  0  0  0 
  1  4  1  0  0  0  0 
  5  3  1  0  0  0  0 
  3  6  1  0  0  0  0 
  4  7  2  0  0  0  0 
  7  5  1  0  0  0  0 
  5  8  2  0  0  0  0 
  9  6  2  0  0  0  0 
  6 10  1  0  0  0  0 
 11  9  1  0  0  0  0 
 10 12  2  0  0  0  0 
 13 11  2  0  0  0  0 
 11 14  1  0  0  0  0 
 12 13  1  0  0  0  0 
 14 15  1  0  0  0  0 
 16 14  1  0  0  0  0 
 15 17  2  0  0  0  0 
 15 18  1  0  0  0  0 
 16 19  2  0  0  0  0 
 20 16  1  0  0  0  0 
 18 20  2  0  0  0  0 
M  END
> <Name>
1,1'-(m-Phenylene)bis-1H-pyrrole-2,5-dione (9CI)

> <Source>
NIST2DMolFile

> <Tox>
2.292

> <CAS>
3006-93-7

$$$$

  CDK

 12 11  0  0  0  0  0  0  0  0999 V2000
    4.5932   -3.3311    0.0000 C   0  0  0  0  0  0  0  0  0  0  0  0
    5.7450   -3.9863    0.0000 C   0  0  0  0  0  0  0  0  0  0  0  0
    4.5932   -2.0001    0.0000 N   0  0  0  0  0  0  0  0  0  0  0  0
    5.7450   -5.3174    0.0000 N   0  0  0  0  0  0  0  0  0  0  0  0
    3.4553   -1.3311    0.0000 C   0  0  0  0  0  0  0  0  0  0  0  0
    5.7450   -1.3311    0.0000 C   0  0  0  0  0  0  0  0  0  0  0  0
    6.8967   -5.9864    0.0000 C   0  0  0  0  0  0  0  0  0  0  0  0
    4.5932   -5.9864    0.0000 C   0  0  0  0  0  0  0  0  0  0  0  0
    2.3035   -2.0001    0.0000 C   0  0  0  0  0  0  0  0  0  0  0  0
    1.1518   -1.3311    0.0000 N   0  0  0  0  0  0  0  0  0  0  0  0
    1.1518   -0.0000    0.0000 C   0  0  0  0  0  0  0  0  0  0  0  0
    0.0000   -2.0001    0.0000 C   0  0  0  0  0  0  0  0  0  0  0  0
  1  2  1  0  0  0  0 
  1  3  1  0  0  0  0 
  2  4  1  0  0  0  0 
  3  5  1  0  0  0  0 
  3  6  1  0  0  0  0 
  4  7  1  0  0  0  0 
  4  8  1  0  0  0  0 
  5  9  1  0  0  0  0 
  9 10  1  0  0  0  0 
 10 11  1  0  0  0  0 
 10 12  1  0  0  0  0 
M  END
> <Name>
1,2-Ethanediamine, N-(2-(dimethylamino)ethyl)-N,N',N'-trimethyl-

> <Source>
DSSTox2DMolFile

> <Tox>
2.108

> <CAS>
3030-47-5

$$$$

  CDK

 15 16  0  0  0  0  0  0  0  0999 V2000
    1.2127    4.1977    0.0000 C   0  0  0  0  0  0  0  0  0  0  0  0
    2.4253    4.8973    0.0000 C   0  0  0  0  0  0  0  0  0  0  0  0
    1.2127    2.7984    0.0000 C   0  0  0  0  0  0  0  0  0  0  0  0
    0.0000    4.8973    0.0000 N   0  0  0  0  0  0  0  0  0  0  0  0
    3.6380    4.1977    0.0000 C   0  0  0  0  0  0  0  0  0  0  0  0
    2.4253    6.2965    0.0000 Br  0  0  0  0  0  0  0  0  0  0  0  0
    2.4253    2.0988    0.0000 N   0  0  0  0  0  0  0  0  0  0  0  0
    3.6380    2.7984    0.0000 N   0  0  0  0  0  0  0  0  0  0  0  0
    4.8040    4.8973    0.0000 O   0  0  0  0  0  0  0  0  0  0  0  0
    4.8506    2.0988    0.0000 C   0  0  0  0  0  0  0  0  0  0  0  0
    4.8506    0.6996    0.0000 C   0  0  0  0  0  0  0  0  0  0  0  0
    6.0167    2.7984    0.0000 C   0  0  0  0  0  0  0  0  0  0  0  0
    6.0167    0.0000    0.0000 C   0  0  0  0  0  0  0  0  0  0  0  0
    7.2293    2.0988    0.0000 C   0  0  0  0  0  0  0  0  0  0  0  0
    7.2293    0.6996    0.0000 C   0  0  0  0  0  0  0  0  0  0  0  0
  1  2  2  0  0  0  0 
  1  3  1  0  0  0  0 
  1  4  1  0  0  0  0 
  2  5  1  0  0  0  0 
  2  6  1  0  0  0  0 
  3  7  2  0  0  0  0 
  8  5  1  0  0  0  0 
  5  9  2  0  0  0  0 
  7  8  1  0  0  0  0 
  8 10  1  0  0  0  0 
 10 11  2  0  0  0  0 
 10 12  1  0  0  0  0 
 11 13  1  0  0  0  0 
 14 12  2  0  0  0  0 
 13 15  2  0  0  0  0 
 15 14  1  0  0  0  0 
M  END
> <Name>
3(2H)-Pyridazinone, 5-amino-4-bromo-2-phenyl-

> <Source>
IndexNet2DMolFile

> <Tox>
1.496

> <CAS>
3042-84-0

$$$$

  CDK

 11 10  0  0  0  0  0  0  0  0999 V2000
    2.0846   -2.1146    0.0000 S   0  0  0  0  0  0  0  0  0  0  0  0
    2.0846   -3.4743    0.0000 O   0  0  0  0  0  0  0  0  0  0  0  0
    2.0846   -0.7849    0.0000 O   0  0  0  0  0  0  0  0  0  0  0  0
    0.9951   -1.4798    0.0000 C   0  0  0  0  0  0  0  0  0  0  0  0
    3.1998   -1.4498    0.0000 C   0  0  0  0  0  0  0  0  0  0  0  0
    1.0123   -0.0601    0.0000 Cl  0  0  0  0  0  0  0  0  0  0  0  0
    0.9951   -2.8567    0.0000 Cl  0  0  0  0  0  0  0  0  0  0  0  0
    0.0000   -2.1446    0.0000 Cl  0  0  0  0  0  0  0  0  0  0  0  0
    3.1869   -2.7323    0.0000 Cl  0  0  0  0  0  0  0  0  0  0  0  0
    3.1998   -0.0000    0.0000 Cl  0  0  0  0  0  0  0  0  0  0  0  0
    4.2893   -2.2047    0.0000 Cl  0  0  0  0  0  0  0  0  0  0  0  0
  1  2  2  0  0  0  0 
  1  3  2  0  0  0  0 
  1  4  1  0  0  0  0 
  1  5  1  0  0  0  0 
  4  6  1  0  0  0  0 
  4  7  1  0  0  0  0 
  4  8  1  0  0  0  0 
  5  9  1  0  0  0  0 
  5 10  1  0  0  0  0 
  5 11  1  0  0  0  0 
M  END
> <Name>
Methane, sulfonylbis(trichloro-

> <Source>
DSSTox2DMolFile

> <Tox>
2.639

> <CAS>
3064-70-8

$$$$

  CDK

 14 13  0  0  0  0  0  0  0  0999 V2000
   -3.3000   -0.6017    0.0000 C   0  0  0  0  0  0  0  0  0  0  0  0
   -2.4750   -0.6017    0.0000 N   0  0  0  0  0  0  0  0  0  0  0  0
   -2.0625    0.1128    0.0000 C   0  0  0  0  0  0  0  0  0  0  0  0
   -2.0625   -1.3161    0.0000 C   0  0  0  0  0  0  0  0  0  0  0  0
   -1.6500    0.8273    0.0000 C   0  0  0  0  0  0  0  0  0  0  0  0
   -1.2375    1.5418    0.0000 O   0  0  0  0  0  0  0  0  0  0  0  0
   -0.4125    1.5418    0.0000 C   0  0  0  0  0  0  0  0  0  0  0  0
    0.4125    1.5418    0.0000 C   0  0  0  0  0  0  0  0  0  0  0  0
    1.2375    1.5418    0.0000 O   0  0  0  0  0  0  0  0  0  0  0  0
    1.6500    0.8273    0.0000 C   0  0  0  0  0  0  0  0  0  0  0  0
    2.0625    0.1128    0.0000 C   0  0  0  0  0  0  0  0  0  0  0  0
    2.4750   -0.6017    0.0000 N   0  0  0  0  0  0  0  0  0  0  0  0
    3.3000   -0.6017    0.0000 C   0  0  0  0  0  0  0  0  0  0  0  0
    2.0625   -1.3161    0.0000 C   0  0  0  0  0  0  0  0  0  0  0  0
  1  2  1  0  0  0  0 
  2  3  1  0  0  0  0 
  2  4  1  0  0  0  0 
  3  5  1  0  0  0  0 
  5  6  1  0  0  0  0 
  6  7  1  0  0  0  0 
  7  8  1  0  0  0  0 
  8  9  1  0  0  0  0 
  9 10  1  0  0  0  0 
 10 11  1  0  0  0  0 
 11 12  1  0  0  0  0 
 12 13  1  0  0  0  0 
 12 14  1  0  0  0  0 
M  END
> <Name>
Ethanamine, 2,2'-(1,2-ethanediylbis(oxy))bis(N,N-dimethyl-

> <Source>
Smiles

> <Tox>
1.917

> <CAS>
3065-46-1

$$$$

  CDK

 21 22  0  0  0  0  0  0  0  0999 V2000
    6.9085   -3.9906    0.0000 C   0  0  0  0  0  0  0  0  0  0  0  0
    6.9085   -2.6642    0.0000 C   0  0  0  0  0  0  0  0  0  0  0  0
    5.7782   -4.6480    0.0000 C   0  0  0  0  0  0  0  0  0  0  0  0
    8.0734   -4.6480    0.0000 N   0  0  0  0  0  0  0  0  0  0  0  0
    5.7782   -1.9837    0.0000 C   0  0  0  0  0  0  0  0  0  0  0  0
    4.6249   -3.9906    0.0000 C   0  0  0  0  0  0  0  0  0  0  0  0
    9.2267   -3.9906    0.0000 C   0  0  0  0  0  0  0  0  0  0  0  0
    4.6249   -2.6642    0.0000 C   0  0  0  0  0  0  0  0  0  0  0  0
    9.2267   -2.6642    0.0000 C   0  0  0  0  0  0  0  0  0  0  0  0
   10.3801   -4.6480    0.0000 C   0  0  0  0  0  0  0  0  0  0  0  0
    3.4600   -1.9837    0.0000 N   0  0  0  0  0  0  0  0  0  0  0  0
   10.3801   -1.9837    0.0000 C   0  0  0  0  0  0  0  0  0  0  0  0
    2.3067   -2.6642    0.0000 C   0  0  0  0  0  0  0  0  0  0  0  0
   10.3801   -0.6574    0.0000 C   0  0  0  0  0  0  0  0  0  0  0  0
    1.1533   -1.9837    0.0000 C   0  0  0  0  0  0  0  0  0  0  0  0
    2.3067   -3.9906    0.0000 C   0  0  0  0  0  0  0  0  0  0  0  0
   11.5334   -0.0000    0.0000 C   0  0  0  0  0  0  0  0  0  0  0  0
    9.2267   -0.0000    0.0000 C   0  0  0  0  0  0  0  0  0  0  0  0
    0.0000   -2.6642    0.0000 C   0  0  0  0  0  0  0  0  0  0  0  0
    1.1533   -4.6480    0.0000 C   0  0  0  0  0  0  0  0  0  0  0  0
    0.0000   -3.9906    0.0000 C   0  0  0  0  0  0  0  0  0  0  0  0
  1  2  2  0  0  0  0 
  1  3  1  0  0  0  0 
  1  4  1  0  0  0  0 
  2  5  1  0  0  0  0 
  6  3  2  0  0  0  0 
  4  7  1  0  0  0  0 
  5  8  2  0  0  0  0 
  8  6  1  0  0  0  0 
  7  9  1  0  0  0  0 
  7 10  1  0  0  0  0 
  8 11  1  0  0  0  0 
  9 12  1  0  0  0  0 
 11 13  1  0  0  0  0 
 12 14  1  0  0  0  0 
 13 15  2  0  0  0  0 
 13 16  1  0  0  0  0 
 14 17  1  0  0  0  0 
 14 18  1  0  0  0  0 
 15 19  1  0  0  0  0 
 16 20  2  0  0  0  0 
 19 21  2  0  0  0  0 
 20 21  1  0  0  0  0 
M  END
> <Name>
1,4-Benzenediamine, N-(1,4-dimethylpentyl)-N'-phenyl-

> <Source>
DSSTox2DMolFile

> <Tox>
2.129

> <CAS>
3081-01-4

$$$$

  CDK

 22 22  0  0  0  0  0  0  0  0999 V2000
   10.3715   -1.3388    0.0000 N   0  0  0  0  0  0  0  0  0  0  0  0
    9.2101   -2.0001    0.0000 C   0  0  0  0  0  0  0  0  0  0  0  0
   11.5167   -2.0001    0.0000 C   0  0  0  0  0  0  0  0  0  0  0  0
    9.2101   -3.3227    0.0000 C   0  0  0  0  0  0  0  0  0  0  0  0
    8.0649   -1.3388    0.0000 C   0  0  0  0  0  0  0  0  0  0  0  0
   12.6780   -1.3388    0.0000 C   0  0  0  0  0  0  0  0  0  0  0  0
   11.5167   -3.3227    0.0000 C   0  0  0  0  0  0  0  0  0  0  0  0
    8.0649   -4.0002    0.0000 C   0  0  0  0  0  0  0  0  0  0  0  0
    6.9197   -2.0001    0.0000 C   0  0  0  0  0  0  0  0  0  0  0  0
   13.8233   -2.0001    0.0000 C   0  0  0  0  0  0  0  0  0  0  0  0
    6.9197   -3.3227    0.0000 C   0  0  0  0  0  0  0  0  0  0  0  0
   14.9846   -1.3388    0.0000 C   0  0  0  0  0  0  0  0  0  0  0  0
    5.7583   -4.0002    0.0000 N   0  0  0  0  0  0  0  0  0  0  0  0
   14.9846   -0.0000    0.0000 C   0  0  0  0  0  0  0  0  0  0  0  0
   16.1298   -2.0001    0.0000 C   0  0  0  0  0  0  0  0  0  0  0  0
    4.6131   -3.3227    0.0000 C   0  0  0  0  0  0  0  0  0  0  0  0
    3.4518   -4.0002    0.0000 C   0  0  0  0  0  0  0  0  0  0  0  0
    4.6131   -2.0001    0.0000 C   0  0  0  0  0  0  0  0  0  0  0  0
    2.3066   -3.3227    0.0000 C   0  0  0  0  0  0  0  0  0  0  0  0
    1.1452   -4.0002    0.0000 C   0  0  0  0  0  0  0  0  0  0  0  0
    1.1452   -5.3228    0.0000 C   0  0  0  0  0  0  0  0  0  0  0  0
    0.0000   -3.3227    0.0000 C   0  0  0  0  0  0  0  0  0  0  0  0
  1  2  1  0  0  0  0 
  1  3  1  0  0  0  0 
  2  4  2  0  0  0  0 
  2  5  1  0  0  0  0 
  3  6  1  0  0  0  0 
  3  7  1  0  0  0  0 
  4  8  1  0  0  0  0 
  9  5  2  0  0  0  0 
  6 10  1  0  0  0  0 
  8 11  2  0  0  0  0 
 11  9  1  0  0  0  0 
 10 12  1  0  0  0  0 
 11 13  1  0  0  0  0 
 12 14  1  0  0  0  0 
 12 15  1  0  0  0  0 
 13 16  1  0  0  0  0 
 16 17  1  0  0  0  0 
 16 18  1  0  0  0  0 
 17 19  1  0  0  0  0 
 19 20  1  0  0  0  0 
 20 21  1  0  0  0  0 
 20 22  1  0  0  0  0 
M  END
> <Name>
1,4-Benzenediamine, N,N'-bis(1,4-dimethylpentyl)-

> <Source>
DSSTox2DMolFile

> <Tox>
2.609

> <CAS>
3081-14-9

$$$$

  CDK

 24 25  0  0  0  0  0  0  0  0999 V2000
    2.0522    0.0000    0.0000 N   0  0  0  0  0  0  0  0  0  0  0  0
    2.7518    1.2127    0.0000 C   0  0  0  0  0  0  0  0  0  0  0  0
    4.1510    1.2127    0.0000 C   0  0  0  0  0  0  0  0  0  0  0  0
    2.0522    2.4253    0.0000 C   0  0  0  0  0  0  0  0  0  0  0  0
    4.8506    0.0000    0.0000 I   0  0  0  0  0  0  0  0  0  0  0  0
    4.8506    2.4253    0.0000 C   0  0  0  0  0  0  0  0  0  0  0  0
    2.7518    3.6380    0.0000 C   0  0  0  0  0  0  0  0  0  0  0  0
    0.6530    2.4253    0.0000 I   0  0  0  0  0  0  0  0  0  0  0  0
    4.1510    3.6380    0.0000 C   0  0  0  0  0  0  0  0  0  0  0  0
    2.0522    4.8506    0.0000 C   0  0  0  0  0  0  0  0  0  0  0  0
    4.8506    4.8506    0.0000 I   0  0  0  0  0  0  0  0  0  0  0  0
    0.6530    4.8506    0.0000 O   0  0  0  0  0  0  0  0  0  0  0  0
    2.7518    6.0633    0.0000 N   0  0  0  0  0  0  0  0  0  0  0  0
    4.1510    6.0633    0.0000 C   0  0  0  0  0  0  0  0  0  0  0  0
    2.0522    7.2760    0.0000 C   0  0  0  0  0  0  0  0  0  0  0  0
    4.8506    7.2760    0.0000 C   0  0  0  0  0  0  0  0  0  0  0  0
    0.6530    7.2760    0.0000 C   0  0  0  0  0  0  0  0  0  0  0  0
    2.7518    8.4886    0.0000 C   0  0  0  0  0  0  0  0  0  0  0  0
    6.2499    7.2760    0.0000 C   0  0  0  0  0  0  0  0  0  0  0  0
    0.0000    8.4886    0.0000 C   0  0  0  0  0  0  0  0  0  0  0  0
    2.0522    9.6546    0.0000 C   0  0  0  0  0  0  0  0  0  0  0  0
    6.9495    8.4886    0.0000 O   0  0  0  0  0  0  0  0  0  0  0  0
    6.9495    6.0633    0.0000 O   0  0  0  0  0  0  0  0  0  0  0  0
    0.6530    9.6546    0.0000 C   0  0  0  0  0  0  0  0  0  0  0  0
  1  2  1  0  0  0  0 
  2  3  2  0  0  0  0 
  2  4  1  0  0  0  0 
  3  5  1  0  0  0  0 
  3  6  1  0  0  0  0 
  7  4  2  0  0  0  0 
  4  8  1  0  0  0  0 
  6  9  2  0  0  0  0 
  9  7  1  0  0  0  0 
  7 10  1  0  0  0  0 
  9 11  1  0  0  0  0 
 10 12  2  0  0  0  0 
 10 13  1  0  0  0  0 
 13 14  1  0  0  0  0 
 13 15  1  0  0  0  0 
 14 16  1  0  0  0  0 
 15 17  2  0  0  0  0 
 15 18  1  0  0  0  0 
 16 19  1  0  0  0  0 
 17 20  1  0  0  0  0 
 21 18  2  0  0  0  0 
 19 22  1  0  0  0  0 
 19 23  2  0  0  0  0 
 20 24  2  0  0  0  0 
 24 21  1  0  0  0  0 
M  END
> <Name>
beta-Alanine, N-(3-amino-2,4,6-triiodobenzoyl)-N-phenyl-

> <Source>
IndexNet2DMolFile

> <Tox>
2.374

> <CAS>
3115-05-7

$$$$

  CDK

 26 29  0  0  0  0  0  0  0  0999 V2000
    6.0633    2.0988    0.0000 O   0  0  0  0  0  0  0  0  0  0  0  0
    7.2760    2.7984    0.0000 C   0  0  0  0  0  0  0  0  0  0  0  0
    4.8506    2.7984    0.0000 C   0  0  0  0  0  0  0  0  0  0  0  0
    8.4886    2.0988    0.0000 C   0  0  0  0  0  0  0  0  0  0  0  0
    7.2760    4.1977    0.0000 O   0  0  0  0  0  0  0  0  0  0  0  0
    3.6380    2.0988    0.0000 C   0  0  0  0  0  0  0  0  0  0  0  0
    9.7013    2.7984    0.0000 C   0  0  0  0  0  0  0  0  0  0  0  0
    2.4253    2.7984    0.0000 C   0  0  0  0  0  0  0  0  0  0  0  0
    3.6380    0.6996    0.0000 C   0  0  0  0  0  0  0  0  0  0  0  0
   10.9139    2.0988    0.0000 C   0  0  0  0  0  0  0  0  0  0  0  0
    1.2127    2.0988    0.0000 C   0  0  0  0  0  0  0  0  0  0  0  0
    2.4253    0.0000    0.0000 C   0  0  0  0  0  0  0  0  0  0  0  0
   12.0800    2.7984    0.0000 C   0  0  0  0  0  0  0  0  0  0  0  0
    1.2127    0.6996    0.0000 C   0  0  0  0  0  0  0  0  0  0  0  0
    0.0000    1.3992    0.0000 O   0  0  0  0  0  0  0  0  0  0  0  0
   13.2926    2.0988    0.0000 C   0  0  0  0  0  0  0  0  0  0  0  0
   14.5053    2.7984    0.0000 O   0  0  0  0  0  0  0  0  0  0  0  0
   13.2926    0.6996    0.0000 O   0  0  0  0  0  0  0  0  0  0  0  0
   15.7179    2.0988    0.0000 C   0  0  0  0  0  0  0  0  0  0  0  0
   16.9306    2.7984    0.0000 C   0  0  0  0  0  0  0  0  0  0  0  0
   18.1433    2.0988    0.0000 C   0  0  0  0  0  0  0  0  0  0  0  0
   16.9306    4.1977    0.0000 C   0  0  0  0  0  0  0  0  0  0  0  0
   19.3559    2.7984    0.0000 C   0  0  0  0  0  0  0  0  0  0  0  0
   18.1433    4.8973    0.0000 C   0  0  0  0  0  0  0  0  0  0  0  0
   19.3559    4.1977    0.0000 C   0  0  0  0  0  0  0  0  0  0  0  0
   20.5686    3.4981    0.0000 O   0  0  0  0  0  0  0  0  0  0  0  0
  1  2  1  0  0  0  0 
  1  3  1  0  0  0  0 
  2  4  1  0  0  0  0 
  2  5  2  0  0  0  0 
  3  6  1  0  0  0  0 
  4  7  1  0  0  0  0 
  6  8  1  0  0  0  0 
  6  9  1  0  0  0  0 
  7 10  1  0  0  0  0 
  8 11  1  0  0  0  0 
 12  9  1  0  0  0  0 
 10 13  1  0  0  0  0 
 11 14  1  0  0  0  0 
 11 15  1  0  0  0  0 
 14 12  1  0  0  0  0 
 13 16  1  0  0  0  0 
 14 15  1  0  0  0  0 
 16 17  1  0  0  0  0 
 16 18  2  0  0  0  0 
 17 19  1  0  0  0  0 
 19 20  1  0  0  0  0 
 20 21  1  0  0  0  0 
 20 22  1  0  0  0  0 
 21 23  1  0  0  0  0 
 24 22  1  0  0  0  0 
 23 25  1  0  0  0  0 
 23 26  1  0  0  0  0 
 25 24  1  0  0  0  0 
 25 26  1  0  0  0  0 
M  END
> <Name>
Hexanedioic acid, bis(7-oxabicyclo(4.1.0)hept-3-ylmethyl) ester

> <Source>
IndexNet2DMolFile

> <Tox>
1.861

> <CAS>
3130-19-6

$$$$

  CDK

 19 19  0  0  0  0  0  0  0  0999 V2000
   -1.4941   -1.0781    0.0000 Cl  0  0  0  0  0  0  0  0  0  0  0  0
   -1.4961   -0.2044    0.0000 C   0  0  0  0  0  0  0  0  0  0  0  0
   -0.7937    0.1449    0.0000 C   0  0  0  0  0  0  0  0  0  0  0  0
   -2.1883    0.2185    0.0000 C   0  0  0  0  0  0  0  0  0  0  0  0
   -0.7044    0.9963    0.0000 C   0  0  0  0  0  0  0  0  0  0  0  0
   -2.8133   -0.3273    0.0000 Cl  0  0  0  0  0  0  0  0  0  0  0  0
   -2.1651    1.0589    0.0000 C   0  0  0  0  0  0  0  0  0  0  0  0
    0.0835    1.3911    0.0000 S   0  0  0  0  0  0  0  0  0  0  0  0
   -1.3969    1.4291    0.0000 C   0  0  0  0  0  0  0  0  0  0  0  0
    1.0063    1.3756    0.0000 C   0  0  0  0  0  0  0  0  0  0  0  0
    1.5999    0.7059    0.0000 S   0  0  0  0  0  0  0  0  0  0  0  0
    1.8993   -0.1231    0.0000 P   0  0  0  0  0  0  0  0  0  0  0  0
    2.7252   -0.2409    0.0000 S   0  0  0  0  0  0  0  0  0  0  0  0
    1.1850   -0.5076    0.0000 O   0  0  0  0  0  0  0  0  0  0  0  0
    1.6219   -0.9580    0.0000 O   0  0  0  0  0  0  0  0  0  0  0  0
    0.8668    0.2338    0.0000 C   0  0  0  0  0  0  0  0  0  0  0  0
    1.0445   -1.6113    0.0000 C   0  0  0  0  0  0  0  0  0  0  0  0
    0.1543    0.6574    0.0000 C   0  0  0  0  0  0  0  0  0  0  0  0
    0.2872   -2.0071    0.0000 C   0  0  0  0  0  0  0  0  0  0  0  0
  1  2  1  0  0  0  0 
  2  3  1  0  0  0  0 
  2  4  2  0  0  0  0 
  3  5  2  0  0  0  0 
  4  6  1  0  0  0  0 
  4  7  1  0  0  0  0 
  5  8  1  0  0  0  0 
  5  9  1  0  0  0  0 
  9  7  2  0  0  0  0 
  8 10  1  0  0  0  0 
 10 11  1  0  0  0  0 
 11 12  1  0  0  0  0 
 12 13  2  0  0  0  0 
 12 14  1  0  0  0  0 
 12 15  1  0  0  0  0 
 14 16  1  0  0  0  0 
 15 17  1  0  0  0  0 
 16 18  1  0  0  0  0 
 17 19  1  0  0  0  0 
M  END
> <Name>
Phosphorodithioic acid, (((3,4-dichlorophenyl)thio)methyl) O,O-diethyl ester

> <Source>
Smiles

> <Tox>
3.627

> <CAS>
3152-41-8

$$$$

  CDK

 12 15  0  0  0  0  0  0  0  0999 V2000
   -5.8493    1.1330    2.0370 O   0  0  0  0  0  0  0  0  0  0  0  0
   -4.6631    1.9107    1.8249 C   0  0  0  0  0  0  0  0  0  0  0  0
   -5.4201    1.3009    0.6769 C   0  0  0  0  0  0  0  0  0  0  0  0
   -3.3168    1.1881    1.9975 C   0  0  0  0  0  0  0  0  0  0  0  0
   -4.5353    0.2190    0.0399 C   0  0  0  0  0  0  0  0  0  0  0  0
   -3.2387    0.1018    0.8931 C   0  0  0  0  0  0  0  0  0  0  0  0
   -2.0484    2.0528    1.7084 C   0  0  0  0  0  0  0  0  0  0  0  0
   -1.9048    0.4769    0.1656 C   0  0  0  0  0  0  0  0  0  0  0  0
   -1.9269    2.0177    0.1733 C   0  0  0  0  0  0  0  0  0  0  0  0
   -0.7687    1.2840    2.1454 C   0  0  0  0  0  0  0  0  0  0  0  0
   -0.6736    0.1680    1.0708 C   0  0  0  0  0  0  0  0  0  0  0  0
    0.5515    0.2189    0.3365 O   0  0  0  0  0  0  0  0  0  0  0  0
  1  2  1  0  0  0  0 
  1  3  1  0  0  0  0 
  4  2  1  0  0  0  0 
  2  3  1  0  0  0  0 
  3  5  1  0  0  0  0 
  4  6  1  0  0  0  0 
  4  7  1  0  0  0  0 
  6  5  1  0  0  0  0 
  6  8  1  0  0  0  0 
  7  9  1  0  0  0  0 
  7 10  1  0  0  0  0 
  8  9  1  0  0  0  0 
  8 11  1  0  0  0  0 
 11 10  1  0  0  0  0 
 12 11  1  0  0  0  0 
M  END
> <Name>
4-Oxatetracyclo-(6.2.1.0(sup 2,7).0(sup 3,5))-undecan-9-ol

> <Source>
Chemidplus3DMolFile

> <Tox>
1.725

> <CAS>
3188-57-6

$$$$

  CDK

  7  6  0  0  0  0  0  0  0  0999 V2000
    1.1154   -0.0835    0.0081 C   0  0  0  0  0  0  0  0  0  0  0  0
    1.5709   -1.5160   -0.0967 C   0  0  0  0  0  0  0  0  0  0  0  0
    1.8890    0.8450    0.1864 O   0  0  0  0  0  0  0  0  0  0  0  0
   -0.2721    0.2399   -0.1954 N   0  0  0  0  0  0  0  0  0  0  0  0
   -1.2643   -0.7616    0.0761 C   0  0  0  0  0  0  0  0  0  0  0  0
   -0.6740    1.6608   -0.0855 C   0  0  0  0  0  0  0  0  0  0  0  0
   -2.5759   -0.5206    0.0921 C   0  0  0  0  0  0  0  0  0  0  0  0
  1  2  1  0  0  0  0 
  1  3  2  0  0  0  0 
  1  4  1  0  0  0  0 
  4  5  1  0  0  0  0 
  4  6  1  0  0  0  0 
  5  7  2  0  0  0  0 
M  END
> <Name>
Acetamide, N-ethenyl-N-methyl-

> <Source>
DougDB3DMolFile

> <Tox>
1.563

> <CAS>
3195-78-6

$$$$

  CDK

  6  6  0  0  0  0  0  0  0  0999 V2000
    0.7739   -0.0089    0.4498 C   0  0  0  0  0  0  0  0  0  0  0  0
   -0.1119   -1.2033    0.1760 C   0  0  0  0  0  0  0  0  0  0  0  0
   -0.1274    1.2175    0.1649 C   0  0  0  0  0  0  0  0  0  0  0  0
    1.9108    0.0590   -0.3862 O   0  0  0  0  0  0  0  0  0  0  0  0
   -1.3523   -0.8324   -0.1551 C   0  0  0  0  0  0  0  0  0  0  0  0
   -1.5125    0.6536   -0.1820 C   0  0  0  0  0  0  0  0  0  0  0  0
  1  2  1  0  0  0  0 
  1  3  1  0  0  0  0 
  1  4  1  0  0  0  0 
  2  5  2  0  0  0  0 
  6  3  1  0  0  0  0 
  5  6  1  0  0  0  0 
M  END
> <Name>
Cyclopent-2-en-1-ol

> <Source>
DougDB3DMolFile

> <Tox>
2.251

> <CAS>
3212-60-0

$$$$

  CDK

 18 18  0  0  0  0  0  0  0  0999 V2000
    0.0000    1.4688    0.0000 O   0  0  0  0  0  0  0  0  0  0  0  0
    1.0129    1.4688    0.0000 P   0  0  0  0  0  0  0  0  0  0  0  0
    1.0129    2.4817    0.0000 O   0  0  0  0  0  0  0  0  0  0  0  0
    1.0129    0.5065    0.0000 O   0  0  0  0  0  0  0  0  0  0  0  0
    2.0259    1.4688    0.0000 S   0  0  0  0  0  0  0  0  0  0  0  0
    1.9246    2.9882    0.0000 C   0  0  0  0  0  0  0  0  0  0  0  0
    1.9246    0.0000    0.0000 C   0  0  0  0  0  0  0  0  0  0  0  0
    3.0894    1.4688    0.0000 C   0  0  0  0  0  0  0  0  0  0  0  0
    2.7856    2.4817    0.0000 C   0  0  0  0  0  0  0  0  0  0  0  0
    2.7856    0.5065    0.0000 C   0  0  0  0  0  0  0  0  0  0  0  0
    3.5453    2.3297    0.0000 C   0  0  0  0  0  0  0  0  0  0  0  0
    3.5453    0.6584    0.0000 C   0  0  0  0  0  0  0  0  0  0  0  0
    4.5582    2.3297    0.0000 C   0  0  0  0  0  0  0  0  0  0  0  0
    4.5582    0.6584    0.0000 C   0  0  0  0  0  0  0  0  0  0  0  0
    5.0647    1.4688    0.0000 C   0  0  0  0  0  0  0  0  0  0  0  0
    6.0776    1.4688    0.0000 N   0  0  0  0  0  0  0  0  0  0  0  0
    6.5841    2.3297    0.0000 O   0  0  0  0  0  0  0  0  0  0  0  0
    6.5841    0.6584    0.0000 O   0  0  0  0  0  0  0  0  0  0  0  0
  1  2  2  0  0  0  0 
  2  3  1  0  0  0  0 
  2  4  1  0  0  0  0 
  2  5  1  0  0  0  0 
  3  6  1  0  0  0  0 
  4  7  1  0  0  0  0 
  5  8  1  0  0  0  0 
  6  9  1  0  0  0  0 
  7 10  1  0  0  0  0 
  8 11  2  0  0  0  0 
 12  8  1  0  0  0  0 
 11 13  1  0  0  0  0 
 14 12  2  0  0  0  0 
 13 15  2  0  0  0  0 
 15 14  1  0  0  0  0 
 15 16  1  0  0  0  0 
 16 17  2  0  0  0  0 
 16 18  2  0  0  0  0 
M  END
> <Name>
Phosphorothioic acid, O,O-diethyl-S-(4-nitrophenyl) ester (9CI)

> <Source>
NIST2DMolFile

> <Tox>
4.820

> <CAS>
3270-86-8

$$$$

  CDK

 16 17  0  0  0  0  0  0  0  0999 V2000
    5.4285   -5.3742   -0.1067 N   0  0  0  0  0  0  0  0  0  0  0  0
    6.0381   -4.2440    0.5821 C   0  0  0  0  0  0  0  0  0  0  0  0
    6.3439   -6.5167   -0.1349 C   0  0  0  0  0  0  0  0  0  0  0  0
    4.1675   -5.7510    0.5353 C   0  0  0  0  0  0  0  0  0  0  0  0
    5.0896   -3.0542    0.5879 C   0  0  0  0  0  0  0  0  0  0  0  0
    5.6570   -1.9448    1.2824 N   0  0  0  0  0  0  0  0  0  0  0  0
    4.8774   -0.8627    1.7619 C   0  0  0  0  0  0  0  0  0  0  0  0
    3.6649   -0.6950    1.2012 N   0  0  0  0  0  0  0  0  0  0  0  0
    5.3891   -0.0448    2.7654 C   0  0  0  0  0  0  0  0  0  0  0  0
    2.9623    0.3411    1.6866 C   0  0  0  0  0  0  0  0  0  0  0  0
    4.5602    1.0063    3.1901 C   0  0  0  0  0  0  0  0  0  0  0  0
    6.6590   -0.2402    3.3357 C   0  0  0  0  0  0  0  0  0  0  0  0
    3.3439    1.2023    2.6516 N   0  0  0  0  0  0  0  0  0  0  0  0
    5.0381    1.8463    4.1930 C   0  0  0  0  0  0  0  0  0  0  0  0
    7.1113    0.6142    4.3363 C   0  0  0  0  0  0  0  0  0  0  0  0
    6.2997    1.6586    4.7652 C   0  0  0  0  0  0  0  0  0  0  0  0
  1  2  1  0  0  0  0 
  1  3  1  0  0  0  0 
  1  4  1  0  0  0  0 
  2  5  1  0  0  0  0 
  6  5  1  0  0  0  0 
  6  7  1  0  0  0  0 
  8  7  2  0  0  0  0 
  7  9  1  0  0  0  0 
  8 10  1  0  0  0  0 
  9 11  1  0  0  0  0 
  9 12  2  0  0  0  0 
 13 10  2  0  0  0  0 
 13 11  1  0  0  0  0 
 11 14  2  0  0  0  0 
 12 15  1  0  0  0  0 
 14 16  1  0  0  0  0 
 15 16  2  0  0  0  0 
M  END
> <Name>
Quinazoline, 4-((2-(dimethylamino)ethyl)amino)-

> <Source>
Chemidplus3DMolFile

> <Tox>
2.509

> <CAS>
3337-87-9

$$$$

  CDK

 12 11  0  0  0  0  0  0  0  0999 V2000
   -0.8406   -0.9533    0.0000 C   0  0  0  0  0  0  0  0  0  0  0  0
   -0.0579   -1.2142    0.0000 S   0  0  0  0  0  0  0  0  0  0  0  0
    0.5594   -0.6669    0.0000 P   0  0  0  0  0  0  0  0  0  0  0  0
    0.0120   -0.0496    0.0000 O   0  0  0  0  0  0  0  0  0  0  0  0
    1.1067   -1.2841    0.0000 O   0  0  0  0  0  0  0  0  0  0  0  0
    1.1766   -0.1195    0.0000 S   0  0  0  0  0  0  0  0  0  0  0  0
    1.9150   -1.1187    0.0000 C   0  0  0  0  0  0  0  0  0  0  0  0
    0.3940    0.1414    0.0000 C   0  0  0  0  0  0  0  0  0  0  0  0
   -0.3887    0.4023    0.0000 C   0  0  0  0  0  0  0  0  0  0  0  0
   -1.0060   -0.1451    0.0000 O   0  0  0  0  0  0  0  0  0  0  0  0
   -0.5541    1.2105    0.0000 N   0  0  0  0  0  0  0  0  0  0  0  0
   -1.3368    1.4714    0.0000 C   0  0  0  0  0  0  0  0  0  0  0  0
  1  2  1  0  0  0  0 
  2  3  1  0  0  0  0 
  3  4  2  0  0  0  0 
  3  5  1  0  0  0  0 
  3  6  1  0  0  0  0 
  5  7  1  0  0  0  0 
  6  8  1  0  0  0  0 
  8  9  1  0  0  0  0 
  9 10  2  0  0  0  0 
  9 11  1  0  0  0  0 
 11 12  1  0  0  0  0 
M  END
> <Name>
Phosphorodithioic acid, O,S-dimethyl ester, S-ester with 2-mercapto-N-methylacetamide

> <Source>
Smiles

> <Tox>
3.360

> <CAS>
3344-11-4

$$$$

  CDK

 12 13  0  0  0  0  0  0  0  0999 V2000
    0.0000    0.0000    0.0000 C   0  0  0  0  0  0  0  0  0  0  0  0
    0.8033    0.6024    0.0000 C   0  0  0  0  0  0  0  0  0  0  0  0
    1.7069    0.3012    0.0000 C   0  0  0  0  0  0  0  0  0  0  0  0
    0.8033    1.6065    0.0000 N   0  0  0  0  0  0  0  0  0  0  0  0
    2.3094    1.1045    0.0000 C   0  0  0  0  0  0  0  0  0  0  0  0
    1.7571    1.9078    0.0000 N   0  0  0  0  0  0  0  0  0  0  0  0
    3.3135    1.1045    0.0000 C   0  0  0  0  0  0  0  0  0  0  0  0
    3.8155    2.0082    0.0000 C   0  0  0  0  0  0  0  0  0  0  0  0
    3.8155    0.2510    0.0000 C   0  0  0  0  0  0  0  0  0  0  0  0
    4.8196    2.0082    0.0000 C   0  0  0  0  0  0  0  0  0  0  0  0
    4.8196    0.2510    0.0000 C   0  0  0  0  0  0  0  0  0  0  0  0
    5.3216    1.1045    0.0000 C   0  0  0  0  0  0  0  0  0  0  0  0
  1  2  1  0  0  0  0 
  2  3  1  0  0  0  0 
  4  2  2  0  0  0  0 
  3  5  2  0  0  0  0 
  6  4  1  0  0  0  0 
  5  6  1  0  0  0  0 
  5  7  1  0  0  0  0 
  8  7  2  0  0  0  0 
  7  9  1  0  0  0  0 
 10  8  1  0  0  0  0 
  9 11  2  0  0  0  0 
 12 10  2  0  0  0  0 
 11 12  1  0  0  0  0 
M  END
> <Name>
1H-Pyrazole, 3-methyl-5-phenyl- (9CI)

> <Source>
NIST2DMolFile

> <Tox>
1.944

> <CAS>
3347-62-4

$$$$

  CDK

 17 18  0  0  0  0  0  0  0  0999 V2000
    4.6122   -1.3283    0.0000 O   0  0  0  0  0  0  0  0  0  0  0  0
    3.4591   -1.9648    0.0000 C   0  0  0  0  0  0  0  0  0  0  0  0
    5.7468   -1.9648    0.0000 C   0  0  0  0  0  0  0  0  0  0  0  0
    2.3061   -1.3283    0.0000 C   0  0  0  0  0  0  0  0  0  0  0  0
    3.4591   -3.2931    0.0000 C   0  0  0  0  0  0  0  0  0  0  0  0
    6.9183   -1.3283    0.0000 C   0  0  0  0  0  0  0  0  0  0  0  0
    5.7468   -3.2931    0.0000 C   0  0  0  0  0  0  0  0  0  0  0  0
    1.1530   -1.9648    0.0000 C   0  0  0  0  0  0  0  0  0  0  0  0
    2.3061   -0.0000    0.0000 Cl  0  0  0  0  0  0  0  0  0  0  0  0
    2.3061   -3.9849    0.0000 C   0  0  0  0  0  0  0  0  0  0  0  0
    8.0529   -1.9648    0.0000 C   0  0  0  0  0  0  0  0  0  0  0  0
    6.9183   -0.0000    0.0000 O   0  0  0  0  0  0  0  0  0  0  0  0
    6.9183   -3.9849    0.0000 C   0  0  0  0  0  0  0  0  0  0  0  0
    1.1530   -3.2931    0.0000 C   0  0  0  0  0  0  0  0  0  0  0  0
    8.0529   -3.2931    0.0000 C   0  0  0  0  0  0  0  0  0  0  0  0
    0.0000   -3.9849    0.0000 Cl  0  0  0  0  0  0  0  0  0  0  0  0
    9.2244   -3.9849    0.0000 Cl  0  0  0  0  0  0  0  0  0  0  0  0
  1  2  1  0  0  0  0 
  1  3  1  0  0  0  0 
  2  4  1  0  0  0  0 
  2  5  2  0  0  0  0 
  3  6  2  0  0  0  0 
  3  7  1  0  0  0  0 
  4  8  2  0  0  0  0 
  4  9  1  0  0  0  0 
  5 10  1  0  0  0  0 
  6 11  1  0  0  0  0 
  6 12  1  0  0  0  0 
  7 13  2  0  0  0  0 
  8 14  1  0  0  0  0 
 14 10  2  0  0  0  0 
 11 15  2  0  0  0  0 
 15 13  1  0  0  0  0 
 14 16  1  0  0  0  0 
 15 17  1  0  0  0  0 
M  END
> <Name>
Ether, 2'-hydroxy-2,4,4'-trichlorodiphenyl

> <Source>
DSSTox2DMolFile

> <Tox>
1.894

> <CAS>
3380-34-5

$$$$

  CDK

 16 17  0  0  0  0  0  0  0  0999 V2000
   -1.6673   -0.3236    2.5327 Br  0  0  0  0  0  0  0  0  0  0  0  0
    0.1486   -0.5928    2.0629 C   0  0  0  0  0  0  0  0  0  0  0  0
    1.0472   -1.0509    3.0269 C   0  0  0  0  0  0  0  0  0  0  0  0
    0.6634   -0.3580    0.7837 C   0  0  0  0  0  0  0  0  0  0  0  0
    0.8939   -1.3767    4.3501 N   0  0  0  0  0  0  0  0  0  0  0  0
    2.3966   -1.2756    2.7693 C   0  0  0  0  0  0  0  0  0  0  0  0
   -0.4257    0.2698   -0.6474 Br  0  0  0  0  0  0  0  0  0  0  0  0
    2.0128   -0.5742    0.4946 C   0  0  0  0  0  0  0  0  0  0  0  0
    2.1127   -1.7723    4.8265 C   0  0  0  0  0  0  0  0  0  0  0  0
    3.0425   -1.7232    3.8988 N   0  0  0  0  0  0  0  0  0  0  0  0
    2.8968   -1.0344    1.4786 C   0  0  0  0  0  0  0  0  0  0  0  0
    2.2873   -2.1925    6.2291 C   0  0  0  0  0  0  0  0  0  0  0  0
    4.7166   -1.3200    1.0680 Br  0  0  0  0  0  0  0  0  0  0  0  0
    3.5699   -2.5546    6.5283 F   0  0  0  0  0  0  0  0  0  0  0  0
    1.9642   -1.2179    7.1300 F   0  0  0  0  0  0  0  0  0  0  0  0
    1.5096   -3.2685    6.5449 F   0  0  0  0  0  0  0  0  0  0  0  0
  1  2  1  0  0  0  0 
  3  2  1  0  0  0  0 
  2  4  2  0  0  0  0 
  5  3  1  0  0  0  0 
  3  6  2  0  0  0  0 
  7  4  1  0  0  0  0 
  4  8  1  0  0  0  0 
  5  9  1  0  0  0  0 
 10  6  1  0  0  0  0 
  6 11  1  0  0  0  0 
 11  8  2  0  0  0  0 
 10  9  2  0  0  0  0 
  9 12  1  0  0  0  0 
 13 11  1  0  0  0  0 
 14 12  1  0  0  0  0 
 15 12  1  0  0  0  0 
 16 12  1  0  0  0  0 
M  END
> <Name>
Benzimidazole, 4,5,7-tribromo-2-(trifluoromethyl)-

> <Source>
Chemidplus3DMolFile

> <Tox>
4.520

> <CAS>
3393-60-0

$$$$

  CDK

 18 19  0  0  0  0  0  0  0  0999 V2000
    0.0000    0.0000    0.0000 C   0  0  0  0  0  0  0  0  0  0  0  0
   -1.3200    0.5200   -0.2200 O   0  0  0  0  0  0  0  0  0  0  0  0
    0.2000   -0.3000    1.4600 C   0  0  0  0  0  0  0  0  0  0  0  0
    0.9800    1.0800   -0.5200 C   0  0  0  0  0  0  0  0  0  0  0  0
   -1.2000    1.7200   -0.7800 C   0  0  0  0  0  0  0  0  0  0  0  0
    1.5200   -0.8000    1.6800 O   0  0  0  0  0  0  0  0  0  0  0  0
    0.1200    2.1400   -1.0000 N   0  0  0  0  0  0  0  0  0  0  0  0
   -2.5200    2.6600   -1.1800 S   0  0  0  0  0  0  0  0  0  0  0  0
    1.7000   -2.1000    1.7000 C   0  0  0  0  0  0  0  0  0  0  0  0
    0.7600   -2.9400    1.0600 C   0  0  0  0  0  0  0  0  0  0  0  0
    2.8000   -2.6600    2.3600 C   0  0  0  0  0  0  0  0  0  0  0  0
    0.9600   -4.3400    1.1000 C   0  0  0  0  0  0  0  0  0  0  0  0
    2.9800   -4.0400    2.3800 C   0  0  0  0  0  0  0  0  0  0  0  0
    2.0600   -4.8800    1.7600 C   0  0  0  0  0  0  0  0  0  0  0  0
   -0.0200   -5.2400    0.4200 C   0  0  0  0  0  0  0  0  0  0  0  0
   -0.0800   -4.9200   -0.9200 F   0  0  0  0  0  0  0  0  0  0  0  0
   -1.2600   -5.0600    0.9800 F   0  0  0  0  0  0  0  0  0  0  0  0
    0.3600   -6.5400    0.5800 F   0  0  0  0  0  0  0  0  0  0  0  0
  1  2  1  0  0  0  0 
  1  3  1  0  0  0  0 
  1  4  1  0  0  0  0 
  2  5  1  0  0  0  0 
  3  6  1  0  0  0  0 
  7  4  1  0  0  0  0 
  5  8  2  0  0  0  0 
  5  7  1  0  0  0  0 
  6  9  1  0  0  0  0 
  9 10  2  0  0  0  0 
  9 11  1  0  0  0  0 
 10 12  1  0  0  0  0 
 13 11  2  0  0  0  0 
 12 14  2  0  0  0  0 
 12 15  1  0  0  0  0 
 14 13  1  0  0  0  0 
 16 15  1  0  0  0  0 
 15 17  1  0  0  0  0 
 15 18  1  0  0  0  0 
M  END
> <Name>
2-Oxazolidinethione, 5-(((alpha,alpha,alpha-trifluoro-m-tolyl)oxy)methyl)-

> <Source>
NIH3DMolFile

> <Tox>
2.724

> <CAS>
3414-47-9

$$$$

  CDK

 21 22  0  0  0  0  0  0  0  0999 V2000
    4.6269   -1.3093    0.0000 C   0  0  0  0  0  0  0  0  0  0  0  0
    4.6269   -0.0000    0.0000 O   0  0  0  0  0  0  0  0  0  0  0  0
    3.4702   -1.9830    0.0000 C   0  0  0  0  0  0  0  0  0  0  0  0
    5.7583   -1.9830    0.0000 O   0  0  0  0  0  0  0  0  0  0  0  0
    2.2881   -1.3093    0.0000 C   0  0  0  0  0  0  0  0  0  0  0  0
    3.4702   -3.2923    0.0000 C   0  0  0  0  0  0  0  0  0  0  0  0
    6.9023   -1.3093    0.0000 C   0  0  0  0  0  0  0  0  0  0  0  0
    1.1567   -1.9830    0.0000 C   0  0  0  0  0  0  0  0  0  0  0  0
    2.2881   -3.9660    0.0000 C   0  0  0  0  0  0  0  0  0  0  0  0
    8.0844   -1.9830    0.0000 C   0  0  0  0  0  0  0  0  0  0  0  0
    1.1567   -3.2923    0.0000 C   0  0  0  0  0  0  0  0  0  0  0  0
    0.0000   -1.3093    0.0000 Cl  0  0  0  0  0  0  0  0  0  0  0  0
    9.2412   -1.3093    0.0000 C   0  0  0  0  0  0  0  0  0  0  0  0
    0.0000   -3.9660    0.0000 Cl  0  0  0  0  0  0  0  0  0  0  0  0
   10.3725   -1.9830    0.0000 N   0  0  0  0  0  0  0  0  0  0  0  0
   10.3725   -3.2923    0.0000 C   0  0  0  0  0  0  0  0  0  0  0  0
   11.5292   -1.3093    0.0000 C   0  0  0  0  0  0  0  0  0  0  0  0
   11.5292   -3.9278    0.0000 C   0  0  0  0  0  0  0  0  0  0  0  0
    9.2666   -3.9660    0.0000 C   0  0  0  0  0  0  0  0  0  0  0  0
   12.7114   -1.9321    0.0000 C   0  0  0  0  0  0  0  0  0  0  0  0
   12.7114   -3.2923    0.0000 C   0  0  0  0  0  0  0  0  0  0  0  0
  1  2  2  0  0  0  0 
  1  3  1  0  0  0  0 
  1  4  1  0  0  0  0 
  3  5  2  0  0  0  0 
  3  6  1  0  0  0  0 
  4  7  1  0  0  0  0 
  5  8  1  0  0  0  0 
  6  9  2  0  0  0  0 
  7 10  1  0  0  0  0 
  8 11  2  0  0  0  0 
  8 12  1  0  0  0  0 
  9 11  1  0  0  0  0 
 10 13  1  0  0  0  0 
 11 14  1  0  0  0  0 
 13 15  1  0  0  0  0 
 15 16  1  0  0  0  0 
 15 17  1  0  0  0  0 
 16 18  1  0  0  0  0 
 16 19  1  0  0  0  0 
 17 20  1  0  0  0  0 
 18 21  1  0  0  0  0 
 20 21  1  0  0  0  0 
M  END
> <Name>
Benzoic acid, 3,4-dichloro-, 3-(2-methylpiperidino)propyl ester

> <Source>
DSSTox2DMolFile

> <Tox>
2.121

> <CAS>
3478-94-2

$$$$

  CDK

 21 20  0  0  0  0  0  0  0  0999 V2000
    3.9912   -7.9825    0.0000 O   0  0  0  0  0  0  0  0  0  0  0  0
    5.1407   -7.3199    0.0000 C   0  0  0  0  0  0  0  0  0  0  0  0
    5.1407   -5.9869    0.0000 O   0  0  0  0  0  0  0  0  0  0  0  0
    6.2982   -7.9825    0.0000 C   0  0  0  0  0  0  0  0  0  0  0  0
    3.9912   -5.3243    0.0000 C   0  0  0  0  0  0  0  0  0  0  0  0
    7.4476   -7.3199    0.0000 C   0  0  0  0  0  0  0  0  0  0  0  0
    3.9912   -3.9912    0.0000 C   0  0  0  0  0  0  0  0  0  0  0  0
    5.3243   -3.9912    0.0000 C   0  0  0  0  0  0  0  0  0  0  0  0
    2.6582   -3.9912    0.0000 C   0  0  0  0  0  0  0  0  0  0  0  0
    3.9912   -2.6582    0.0000 C   0  0  0  0  0  0  0  0  0  0  0  0
    5.9869   -5.1407    0.0000 O   0  0  0  0  0  0  0  0  0  0  0  0
    1.9956   -5.1407    0.0000 O   0  0  0  0  0  0  0  0  0  0  0  0
    2.8418   -1.9956    0.0000 O   0  0  0  0  0  0  0  0  0  0  0  0
    0.6625   -5.1407    0.0000 C   0  0  0  0  0  0  0  0  0  0  0  0
    2.8418   -0.6625    0.0000 C   0  0  0  0  0  0  0  0  0  0  0  0
    0.0000   -3.9912    0.0000 O   0  0  0  0  0  0  0  0  0  0  0  0
    0.0000   -6.2982    0.0000 C   0  0  0  0  0  0  0  0  0  0  0  0
    3.9912   -0.0000    0.0000 O   0  0  0  0  0  0  0  0  0  0  0  0
    1.6843   -0.0000    0.0000 C   0  0  0  0  0  0  0  0  0  0  0  0
    0.6625   -7.4476    0.0000 C   0  0  0  0  0  0  0  0  0  0  0  0
    0.5348   -0.6625    0.0000 C   0  0  0  0  0  0  0  0  0  0  0  0
  1  2  2  0  0  0  0 
  2  3  1  0  0  0  0 
  2  4  1  0  0  0  0 
  3  5  1  0  0  0  0 
  4  6  2  0  0  0  0 
  5  7  1  0  0  0  0 
  7  8  1  0  0  0  0 
  7  9  1  0  0  0  0 
  7 10  1  0  0  0  0 
  8 11  1  0  0  0  0 
  9 12  1  0  0  0  0 
 10 13  1  0  0  0  0 
 12 14  1  0  0  0  0 
 13 15  1  0  0  0  0 
 14 16  2  0  0  0  0 
 14 17  1  0  0  0  0 
 15 18  2  0  0  0  0 
 15 19  1  0  0  0  0 
 17 20  2  0  0  0  0 
 19 21  2  0  0  0  0 
M  END
> <Name>
2-Propenoic acid, 2-(hydroxymethyl)-2-(((1-oxo-2-propenyl)oxy)methyl)-1,3-propanediyl ester

> <Source>
DSSTox2DMolFile

> <Tox>
2.212

> <CAS>
3524-68-3

$$$$

  CDK

 12 11  0  0  0  0  0  0  0  0999 V2000
   11.5436   -0.0000    0.0000 C   0  0  0  0  0  0  0  0  0  0  0  0
   10.3880   -0.6604    0.0000 C   0  0  0  0  0  0  0  0  0  0  0  0
   12.6993   -0.6604    0.0000 O   0  0  0  0  0  0  0  0  0  0  0  0
    9.2324   -0.0000    0.0000 S   0  0  0  0  0  0  0  0  0  0  0  0
    8.0894   -0.6604    0.0000 C   0  0  0  0  0  0  0  0  0  0  0  0
    6.9338   -0.0000    0.0000 C   0  0  0  0  0  0  0  0  0  0  0  0
    5.7782   -0.6604    0.0000 C   0  0  0  0  0  0  0  0  0  0  0  0
    4.6225   -0.0000    0.0000 C   0  0  0  0  0  0  0  0  0  0  0  0
    3.4669   -0.6604    0.0000 C   0  0  0  0  0  0  0  0  0  0  0  0
    2.3113   -0.0000    0.0000 C   0  0  0  0  0  0  0  0  0  0  0  0
    1.1556   -0.6604    0.0000 C   0  0  0  0  0  0  0  0  0  0  0  0
    0.0000   -0.0000    0.0000 C   0  0  0  0  0  0  0  0  0  0  0  0
  1  2  1  0  0  0  0 
  1  3  1  0  0  0  0 
  2  4  1  0  0  0  0 
  4  5  1  0  0  0  0 
  5  6  1  0  0  0  0 
  6  7  1  0  0  0  0 
  7  8  1  0  0  0  0 
  8  9  1  0  0  0  0 
  9 10  1  0  0  0  0 
 10 11  1  0  0  0  0 
 11 12  1  0  0  0  0 
M  END
> <Name>
Ethanol, 2-(octylthio)-

> <Source>
DSSTox2DMolFile

> <Tox>
1.349

> <CAS>
3547-33-9

$$$$

  CDK

 10 10  0  0  0  0  0  0  0  0999 V2000
   -3.1092   -0.0087    0.2701 O   0  0  0  0  0  0  0  0  0  0  0  0
   -1.7905   -0.0047   -0.2647 C   0  0  0  0  0  0  0  0  0  0  0  0
   -4.1109    0.0314   -0.7105 C   0  0  0  0  0  0  0  0  0  0  0  0
   -0.8288   -0.0463    0.9229 C   0  0  0  0  0  0  0  0  0  0  0  0
    0.5837   -0.0209    0.4366 C   0  0  0  0  0  0  0  0  0  0  0  0
    1.2636   -1.2140    0.1872 C   0  0  0  0  0  0  0  0  0  0  0  0
    1.2324    1.1975    0.2288 C   0  0  0  0  0  0  0  0  0  0  0  0
    2.5779   -1.1870   -0.2653 C   0  0  0  0  0  0  0  0  0  0  0  0
    2.5466    1.2203   -0.2238 C   0  0  0  0  0  0  0  0  0  0  0  0
    3.2207    0.0292   -0.4713 C   0  0  0  0  0  0  0  0  0  0  0  0
  1  2  1  0  0  0  0 
  1  3  1  0  0  0  0 
  2  4  1  0  0  0  0 
  4  5  1  0  0  0  0 
  5  6  1  0  0  0  0 
  5  7  2  0  0  0  0 
  6  8  2  0  0  0  0 
  9  7  1  0  0  0  0 
  8 10  1  0  0  0  0 
 10  9  2  0  0  0  0 
M  END
> <Name>
Benzene, (2-methoxyethyl)-

> <Source>
DougDB3DMolFile

> <Tox>
1.521

> <CAS>
3558-60-9

$$$$

  CDK

 14 13  0  0  0  0  0  0  0  0999 V2000
   -1.1218    0.8908    0.0000 Cl  0  0  0  0  0  0  0  0  0  0  0  0
   -0.2962    0.6754    0.0000 C   0  0  0  0  0  0  0  0  0  0  0  0
    0.1321    1.3699    0.0000 Cl  0  0  0  0  0  0  0  0  0  0  0  0
    0.1976   -0.0184    0.0000 C   0  0  0  0  0  0  0  0  0  0  0  0
    1.0083    0.0406    0.0000 O   0  0  0  0  0  0  0  0  0  0  0  0
   -0.1363   -0.7970    0.0000 P   0  0  0  0  0  0  0  0  0  0  0  0
    1.4395    0.7316    0.0000 C   0  0  0  0  0  0  0  0  0  0  0  0
    0.5658   -1.2442    0.0000 O   0  0  0  0  0  0  0  0  0  0  0  0
   -0.8777   -0.3927    0.0000 O   0  0  0  0  0  0  0  0  0  0  0  0
   -0.6957   -1.4235    0.0000 O   0  0  0  0  0  0  0  0  0  0  0  0
    0.9854    1.4140    0.0000 O   0  0  0  0  0  0  0  0  0  0  0  0
    2.2557    0.6673    0.0000 C   0  0  0  0  0  0  0  0  0  0  0  0
   -1.0041    0.4424    0.0000 C   0  0  0  0  0  0  0  0  0  0  0  0
   -1.5262   -1.5303    0.0000 C   0  0  0  0  0  0  0  0  0  0  0  0
  1  2  1  0  0  0  0 
  2  3  1  0  0  0  0 
  2  4  2  0  0  0  0 
  4  5  1  0  0  0  0 
  4  6  1  0  0  0  0 
  5  7  1  0  0  0  0 
  6  8  2  0  0  0  0 
  6  9  1  0  0  0  0 
  6 10  1  0  0  0  0 
  7 11  2  0  0  0  0 
  7 12  1  0  0  0  0 
  9 13  1  0  0  0  0 
 10 14  1  0  0  0  0 
M  END
> <Name>
Phosphonic acid, (2,2-dichloro-1-hydroxyvinyl)-, dimethyl ester, acetate

> <Source>
Smiles

> <Tox>
2.943

> <CAS>
3566-76-5

$$$$

  CDK

 20 20  0  0  0  0  0  0  0  0999 V2000
    3.8069   -2.2288    3.2968 Cl  0  0  0  0  0  0  0  0  0  0  0  0
    2.6900   -0.8569    3.1978 C   0  0  0  0  0  0  0  0  0  0  0  0
    3.5924    0.6707    3.0727 Cl  0  0  0  0  0  0  0  0  0  0  0  0
    1.8510   -1.0362    1.9457 C   0  0  0  0  0  0  0  0  0  0  0  0
    2.3059   -1.6489    0.9740 O   0  0  0  0  0  0  0  0  0  0  0  0
    0.5658   -0.4844    1.9624 N   0  0  0  0  0  0  0  0  0  0  0  0
   -0.3859   -0.5581    0.8584 C   0  0  0  0  0  0  0  0  0  0  0  0
    0.0830    0.1797    3.1664 C   0  0  0  0  0  0  0  0  0  0  0  0
   -0.2192    0.6199   -0.0610 C   0  0  0  0  0  0  0  0  0  0  0  0
   -0.6193   -0.8112    4.0810 C   0  0  0  0  0  0  0  0  0  0  0  0
    0.6609    0.5347   -1.1319 C   0  0  0  0  0  0  0  0  0  0  0  0
   -0.9480    1.7790    0.1717 C   0  0  0  0  0  0  0  0  0  0  0  0
   -1.0573   -0.1256    5.2468 O   0  0  0  0  0  0  0  0  0  0  0  0
    0.8150    1.6274   -1.9849 C   0  0  0  0  0  0  0  0  0  0  0  0
   -0.7940    2.8718   -0.6813 C   0  0  0  0  0  0  0  0  0  0  0  0
    0.0876    2.7961   -1.7596 C   0  0  0  0  0  0  0  0  0  0  0  0
    0.2819    4.1648   -2.8258 S   0  0  0  0  0  0  0  0  0  0  0  0
    0.7460    3.6681   -4.1134 O   0  0  0  0  0  0  0  0  0  0  0  0
   -0.9170    4.9893   -2.7589 O   0  0  0  0  0  0  0  0  0  0  0  0
    1.6011    5.1090   -2.0966 C   0  0  0  0  0  0  0  0  0  0  0  0
  1  2  1  0  0  0  0 
  3  2  1  0  0  0  0 
  4  2  1  0  0  0  0 
  5  4  2  0  0  0  0 
  6  4  1  0  0  0  0 
  6  7  1  0  0  0  0 
  6  8  1  0  0  0  0 
  7  9  1  0  0  0  0 
  8 10  1  0  0  0  0 
  9 11  2  0  0  0  0 
  9 12  1  0  0  0  0 
 13 10  1  0  0  0  0 
 11 14  1  0  0  0  0 
 12 15  2  0  0  0  0 
 16 14  2  0  0  0  0 
 16 15  1  0  0  0  0 
 17 16  1  0  0  0  0 
 17 18  2  0  0  0  0 
 17 19  2  0  0  0  0 
 17 20  1  0  0  0  0 
M  END
> <Name>
Acetamide, 2,2-dichloro-N-(2-hydroxyethyl)-N-(p-(methylsulfonyl)benzyl)-

> <Source>
Chemidplus3DMolFile

> <Tox>
1.435

> <CAS>
3570-98-7

$$$$

  CDK

  8  7  0  0  0  0  0  0  0  0999 V2000
   -1.4237    0.3202    0.0008 C   0  0  0  0  0  0  0  0  0  0  0  0
   -0.5169   -0.8496   -0.0030 C   0  0  0  0  0  0  0  0  0  0  0  0
   -1.1385    1.3408   -1.4218 Cl  0  0  0  0  0  0  0  0  0  0  0  0
   -1.1350    1.3345    1.4273 Cl  0  0  0  0  0  0  0  0  0  0  0  0
    0.8226   -0.8265   -0.0079 C   0  0  0  0  0  0  0  0  0  0  0  0
   -1.3081   -2.3513   -0.0002 Cl  0  0  0  0  0  0  0  0  0  0  0  0
    1.6343    0.4085   -0.0119 C   0  0  0  0  0  0  0  0  0  0  0  0
    3.3581   -0.0112    0.0035 Cl  0  0  0  0  0  0  0  0  0  0  0  0
  1  2  1  0  0  0  0 
  1  3  1  0  0  0  0 
  1  4  1  0  0  0  0 
  2  5  2  0  0  0  0 
  2  6  1  0  0  0  0 
  5  7  1  0  0  0  0 
  7  8  1  0  0  0  0 
M  END
> <Name>
2-Butene, 1,1,2,4-tetrachloro-

> <Source>
DougDB3DMolFile

> <Tox>
2.662

> <CAS>
3574-42-3

$$$$

  CDK

  7  7  0  0  0  0  0  0  0  0999 V2000
    1.9302   -0.5706    0.3994 C   0  0  0  0  0  0  0  0  0  0  0  0
    0.6630   -0.8853   -0.3466 C   0  0  0  0  0  0  0  0  0  0  0  0
    2.4775    1.0426   -0.0980 Cl  0  0  0  0  0  0  0  0  0  0  0  0
   -0.6615   -0.8841    0.3459 C   0  0  0  0  0  0  0  0  0  0  0  0
    0.0004   -2.1109    0.0012 O   0  0  0  0  0  0  0  0  0  0  0  0
   -1.9284   -0.5704   -0.4009 C   0  0  0  0  0  0  0  0  0  0  0  0
   -2.4790    1.0411    0.0984 Cl  0  0  0  0  0  0  0  0  0  0  0  0
  1  2  1  0  0  0  0 
  1  3  1  0  0  0  0 
  2  4  1  0  0  0  0 
  2  5  1  0  0  0  0 
  4  6  1  0  0  0  0 
  4  5  1  0  0  0  0 
  6  7  1  0  0  0  0 
M  END
> <Name>
Butane, 1,4-dichloro-2,3-epoxy-

> <Source>
DougDB3DMolFile

> <Tox>
2.298

> <CAS>
3583-47-9

$$$$

  CDK

 17 18  0  0  0  0  0  0  0  0999 V2000
    3.4274    0.7030    0.0000 N   0  0  0  0  0  0  0  0  0  0  0  0
    4.2368    1.2909    0.0000 C   0  0  0  0  0  0  0  0  0  0  0  0
    2.6182    1.2909    0.0000 C   0  0  0  0  0  0  0  0  0  0  0  0
    3.9286    2.2426    0.0000 N   0  0  0  0  0  0  0  0  0  0  0  0
    5.1899    0.9806    0.0000 C   0  0  0  0  0  0  0  0  0  0  0  0
    1.6475    1.0833    0.0000 C   0  0  0  0  0  0  0  0  0  0  0  0
    2.9286    2.2395    0.0000 C   0  0  0  0  0  0  0  0  0  0  0  0
    5.3977    0.0000    0.0000 F   0  0  0  0  0  0  0  0  0  0  0  0
    5.9351    1.6508    0.0000 F   0  0  0  0  0  0  0  0  0  0  0  0
    4.6435    0.1402    0.0000 F   0  0  0  0  0  0  0  0  0  0  0  0
    0.9797    1.8199    0.0000 C   0  0  0  0  0  0  0  0  0  0  0  0
    2.2629    2.9800    0.0000 C   0  0  0  0  0  0  0  0  0  0  0  0
    0.0000    1.6084    0.0000 Cl  0  0  0  0  0  0  0  0  0  0  0  0
    1.2868    2.7736    0.0000 C   0  0  0  0  0  0  0  0  0  0  0  0
    2.5735    3.9330    0.0000 N   0  0  0  0  0  0  0  0  0  0  0  0
    3.5541    4.1405    0.0000 O   0  0  0  0  0  0  0  0  0  0  0  0
    1.9034    4.6785    0.0000 O   0  0  0  0  0  0  0  0  0  0  0  0
  2  1  1  0  0  0  0 
  1  3  1  0  0  0  0 
  4  2  2  0  0  0  0 
  2  5  1  0  0  0  0 
  3  6  1  0  0  0  0 
  3  7  2  0  0  0  0 
  7  4  1  0  0  0  0 
  5  8  1  0  0  0  0 
  5  9  1  0  0  0  0 
  5 10  1  0  0  0  0 
  6 11  2  0  0  0  0 
 12  7  1  0  0  0  0 
 11 13  1  0  0  0  0 
 11 14  1  0  0  0  0 
 14 12  2  0  0  0  0 
 12 15  1  0  0  0  0 
 15 16  2  0  0  0  0 
 15 17  2  0  0  0  0 
M  END
> <Name>
Benzimidazole, 6-chloro-4-nitro-2-(trifluoromethyl)-

> <Source>
NIST2DMolFile

> <Tox>
4.980

> <CAS>
3671-18-9

$$$$

  CDK

 13 13  0  0  0  0  0  0  0  0999 V2000
   -0.4512   -2.5184    0.0000 Cl  0  0  0  0  0  0  0  0  0  0  0  0
   -0.4512   -1.6934    0.0000 C   0  0  0  0  0  0  0  0  0  0  0  0
    0.2632   -1.2809    0.0000 C   0  0  0  0  0  0  0  0  0  0  0  0
   -1.1657   -1.2809    0.0000 C   0  0  0  0  0  0  0  0  0  0  0  0
    0.2632   -0.4559    0.0000 C   0  0  0  0  0  0  0  0  0  0  0  0
   -1.1657   -0.4559    0.0000 C   0  0  0  0  0  0  0  0  0  0  0  0
    0.9777   -0.0434    0.0000 Cl  0  0  0  0  0  0  0  0  0  0  0  0
   -0.4512   -0.0434    0.0000 C   0  0  0  0  0  0  0  0  0  0  0  0
   -0.4512    0.7816    0.0000 O   0  0  0  0  0  0  0  0  0  0  0  0
    0.2632    1.1941    0.0000 S   0  0  0  0  0  0  0  0  0  0  0  0
   -0.1493    1.9085    0.0000 O   0  0  0  0  0  0  0  0  0  0  0  0
    0.6757    0.4796    0.0000 O   0  0  0  0  0  0  0  0  0  0  0  0
    0.9777    1.6066    0.0000 C   0  0  0  0  0  0  0  0  0  0  0  0
  1  2  1  0  0  0  0 
  2  3  1  0  0  0  0 
  2  4  2  0  0  0  0 
  3  5  2  0  0  0  0 
  4  6  1  0  0  0  0 
  5  7  1  0  0  0  0 
  5  8  1  0  0  0  0 
  8  6  2  0  0  0  0 
  8  9  1  0  0  0  0 
  9 10  1  0  0  0  0 
 10 11  2  0  0  0  0 
 10 12  2  0  0  0  0 
 10 13  1  0  0  0  0 
M  END
> <Name>
Phenol, 2,4-dichloro-, methanesulfonate

> <Source>
Smiles

> <Tox>
1.936

> <CAS>
3687-13-6

$$$$

  CDK

  8  7  0  0  0  0  0  0  0  0999 V2000
   -2.9054    0.8536   -2.1085 S   0  0  0  0  0  0  0  0  0  0  0  0
   -2.0004   -0.3125   -1.5103 C   0  0  0  0  0  0  0  0  0  0  0  0
   -1.3390   -1.1854   -1.0864 N   0  0  0  0  0  0  0  0  0  0  0  0
   -0.6367   -0.8757    0.1615 C   0  0  0  0  0  0  0  0  0  0  0  0
    0.2127   -2.0648    0.5743 C   0  0  0  0  0  0  0  0  0  0  0  0
   -0.6487   -3.2291    0.7938 N   0  0  0  0  0  0  0  0  0  0  0  0
   -0.0886   -4.1975    1.1513 C   0  0  0  0  0  0  0  0  0  0  0  0
    0.6448   -5.5253    1.6368 S   0  0  0  0  0  0  0  0  0  0  0  0
  1  2  2  0  0  0  0 
  3  2  2  0  0  0  0 
  3  4  1  0  0  0  0 
  4  5  1  0  0  0  0 
  6  5  1  0  0  0  0 
  6  7  2  0  0  0  0 
  8  7  2  0  0  0  0 
M  END
> <Name>
Ethane, 1,2-diisothiocyanato- (9CI)

> <Source>
Chemidplus3DMolFile

> <Tox>
3.110

> <CAS>
3688-08-2

$$$$

  CDK

 30 35  0  0  0  0  0  0  0  0999 V2000
    4.6579    3.1523    0.0000 O   0  0  0  0  0  0  0  0  0  0  0  0
    5.5519    2.7759    0.0000 C   0  0  0  0  0  0  0  0  0  0  0  0
    3.9051    2.6348    0.0000 C   0  0  0  0  0  0  0  0  0  0  0  0
    5.6460    1.8820    0.0000 O   0  0  0  0  0  0  0  0  0  0  0  0
    6.3047    3.3405    0.0000 C   0  0  0  0  0  0  0  0  0  0  0  0
    3.0582    3.0112    0.0000 C   0  0  0  0  0  0  0  0  0  0  0  0
    3.9992    1.6938    0.0000 C   0  0  0  0  0  0  0  0  0  0  0  0
    7.1516    2.9641    0.0000 C   0  0  0  0  0  0  0  0  0  0  0  0
    6.2106    4.2815    0.0000 C   0  0  0  0  0  0  0  0  0  0  0  0
    2.3054    2.4466    0.0000 C   0  0  0  0  0  0  0  0  0  0  0  0
    2.7759    3.9051    0.0000 O   0  0  0  0  0  0  0  0  0  0  0  0
    3.2464    1.1292    0.0000 C   0  0  0  0  0  0  0  0  0  0  0  0
    7.9043    3.5287    0.0000 C   0  0  0  0  0  0  0  0  0  0  0  0
    6.9634    4.8461    0.0000 N   0  0  0  0  0  0  0  0  0  0  0  0
    1.5526    3.0112    0.0000 C   0  0  0  0  0  0  0  0  0  0  0  0
    2.3995    1.5056    0.0000 C   0  0  0  0  0  0  0  0  0  0  0  0
    1.4585    2.8230    0.0000 C   0  0  0  0  0  0  0  0  0  0  0  0
    1.8349    3.9051    0.0000 C   0  0  0  0  0  0  0  0  0  0  0  0
    7.8102    4.4697    0.0000 C   0  0  0  0  0  0  0  0  0  0  0  0
    0.6116    2.8230    0.0000 C   0  0  0  0  0  0  0  0  0  0  0  0
    1.6467    0.9410    0.0000 C   0  0  0  0  0  0  0  0  0  0  0  0
    0.6587    2.2584    0.0000 C   0  0  0  0  0  0  0  0  0  0  0  0
    1.1762    4.6109    0.0000 C   0  0  0  0  0  0  0  0  0  0  0  0
    1.7408    0.0000    0.0000 C   0  0  0  0  0  0  0  0  0  0  0  0
    0.0000    3.4817    0.0000 C   0  0  0  0  0  0  0  0  0  0  0  0
    0.7528    1.3174    0.0000 N   0  0  0  0  0  0  0  0  0  0  0  0
    1.5056    5.5048    0.0000 O   0  0  0  0  0  0  0  0  0  0  0  0
    0.2823    4.3756    0.0000 C   0  0  0  0  0  0  0  0  0  0  0  0
    0.0000    0.7998    0.0000 C   0  0  0  0  0  0  0  0  0  0  0  0
    0.8469    6.2106    0.0000 C   0  0  0  0  0  0  0  0  0  0  0  0
  1  2  1  0  0  0  0 
  1  3  1  0  0  0  0 
  2  4  2  0  0  0  0 
  2  5  1  0  0  0  0 
  6  3  1  0  0  0  0 
  3  7  1  0  0  0  0 
  8  5  2  0  0  0  0 
  5  9  1  0  0  0  0 
  6 10  1  0  0  0  0 
 11  6  1  0  0  0  0 
  7 12  2  0  0  0  0 
 13  8  1  0  0  0  0 
  9 14  2  0  0  0  0 
 15 10  1  0  0  0  0 
 10 16  1  0  0  0  0 
 17 10  1  0  0  0  0 
 18 11  1  0  0  0  0 
 12 16  1  0  0  0  0 
 19 13  2  0  0  0  0 
 14 19  1  0  0  0  0 
 15 18  2  0  0  0  0 
 20 15  1  0  0  0  0 
 16 21  1  0  0  0  0 
 22 17  1  0  0  0  0 
 23 18  1  0  0  0  0 
 24 20  1  0  0  0  0 
 20 25  2  0  0  0  0 
 24 21  1  0  0  0  0 
 21 26  1  0  0  0  0 
 26 22  1  0  0  0  0 
 23 27  1  0  0  0  0 
 28 23  2  0  0  0  0 
 25 28  1  0  0  0  0 
 26 29  1  0  0  0  0 
 27 30  1  0  0  0  0 
M  END
> <Name>
(5alpha,6alpha)-7,8-Didehydro-4,5-epoxy-3-methoxy-17-methylmorphinan-6-ol, 3-pyridinecarboxylate (ester)

> <Source>
NIST2DMolFile

> <Tox>
2.683

> <CAS>
3688-66-2

$$$$

  CDK

 17 16  0  0  0  0  0  0  0  0999 V2000
    3.3345   -1.3113    0.0000 P   0  0  0  0  0  0  0  0  0  0  0  0
    4.6552   -1.3113    0.0000 O   0  0  0  0  0  0  0  0  0  0  0  0
    3.3345   -0.0000    0.0000 S   0  0  0  0  0  0  0  0  0  0  0  0
    2.0045   -1.3113    0.0000 O   0  0  0  0  0  0  0  0  0  0  0  0
    3.3345   -2.6788    0.0000 O   0  0  0  0  0  0  0  0  0  0  0  0
    5.9759   -1.3207    0.0000 P   0  0  0  0  0  0  0  0  0  0  0  0
    1.3113   -2.4634    0.0000 C   0  0  0  0  0  0  0  0  0  0  0  0
    4.4679   -3.3532    0.0000 C   0  0  0  0  0  0  0  0  0  0  0  0
    5.9665   -0.0000    0.0000 S   0  0  0  0  0  0  0  0  0  0  0  0
    7.3434   -1.3301    0.0000 O   0  0  0  0  0  0  0  0  0  0  0  0
    5.9759   -2.6788    0.0000 O   0  0  0  0  0  0  0  0  0  0  0  0
    0.0000   -2.4634    0.0000 C   0  0  0  0  0  0  0  0  0  0  0  0
    4.4679   -4.6552    0.0000 C   0  0  0  0  0  0  0  0  0  0  0  0
    8.0365   -0.2248    0.0000 C   0  0  0  0  0  0  0  0  0  0  0  0
    7.1467   -3.3720    0.0000 C   0  0  0  0  0  0  0  0  0  0  0  0
    9.3666   -0.2248    0.0000 C   0  0  0  0  0  0  0  0  0  0  0  0
    7.1467   -4.6833    0.0000 C   0  0  0  0  0  0  0  0  0  0  0  0
  1  2  1  0  0  0  0 
  1  3  2  0  0  0  0 
  1  4  1  0  0  0  0 
  1  5  1  0  0  0  0 
  6  2  1  0  0  0  0 
  4  7  1  0  0  0  0 
  5  8  1  0  0  0  0 
  6  9  2  0  0  0  0 
  6 10  1  0  0  0  0 
  6 11  1  0  0  0  0 
  7 12  1  0  0  0  0 
  8 13  1  0  0  0  0 
 10 14  1  0  0  0  0 
 11 15  1  0  0  0  0 
 14 16  1  0  0  0  0 
 15 17  1  0  0  0  0 
M  END
> <Name>
Thiodiphosphoric acid (((HO)2P(S))2O), tetraethyl ester (9CI)

> <Source>
DSSTox2DMolFile

> <Tox>
4.809

> <CAS>
3689-24-5

$$$$

  CDK

 27 30  0  0  0  0  0  0  0  0999 V2000
    2.2619   -1.6844    0.0000 C   0  0  0  0  0  0  0  0  0  0  0  0
    2.2619   -2.9838    0.0000 C   0  0  0  0  0  0  0  0  0  0  0  0
    3.5132   -1.2633    0.0000 C   0  0  0  0  0  0  0  0  0  0  0  0
    1.1430   -1.0227    0.0000 C   0  0  0  0  0  0  0  0  0  0  0  0
    3.5132   -3.3689    0.0000 C   0  0  0  0  0  0  0  0  0  0  0  0
    1.1430   -3.6335    0.0000 C   0  0  0  0  0  0  0  0  0  0  0  0
    4.2953   -2.3341    0.0000 C   0  0  0  0  0  0  0  0  0  0  0  0
    3.9464   -0.0000    0.0000 O   0  0  0  0  0  0  0  0  0  0  0  0
    0.0000   -1.6844    0.0000 C   0  0  0  0  0  0  0  0  0  0  0  0
    3.7539   -4.6803    0.0000 O   0  0  0  0  0  0  0  0  0  0  0  0
    0.0000   -2.9838    0.0000 C   0  0  0  0  0  0  0  0  0  0  0  0
    5.5827   -2.3341    0.0000 C   0  0  0  0  0  0  0  0  0  0  0  0
    6.2324   -1.1911    0.0000 O   0  0  0  0  0  0  0  0  0  0  0  0
    6.8340   -3.8381    0.0000 C   0  0  0  0  0  0  0  0  0  0  0  0
    6.1843   -4.9811    0.0000 C   0  0  0  0  0  0  0  0  0  0  0  0
    8.1334   -3.8381    0.0000 C   0  0  0  0  0  0  0  0  0  0  0  0
    4.8487   -4.9811    0.0000 C   0  0  0  0  0  0  0  0  0  0  0  0
    6.8340   -6.1000    0.0000 C   0  0  0  0  0  0  0  0  0  0  0  0
    8.7711   -4.9811    0.0000 C   0  0  0  0  0  0  0  0  0  0  0  0
    8.7711   -2.7312    0.0000 C   0  0  0  0  0  0  0  0  0  0  0  0
    4.1990   -6.1361    0.0000 C   0  0  0  0  0  0  0  0  0  0  0  0
    6.1843   -7.2430    0.0000 C   0  0  0  0  0  0  0  0  0  0  0  0
   10.0825   -4.9811    0.0000 C   0  0  0  0  0  0  0  0  0  0  0  0
   10.0825   -2.7312    0.0000 C   0  0  0  0  0  0  0  0  0  0  0  0
    4.8848   -7.2430    0.0000 C   0  0  0  0  0  0  0  0  0  0  0  0
   10.7322   -3.8381    0.0000 C   0  0  0  0  0  0  0  0  0  0  0  0
   12.0316   -3.8381    0.0000 Cl  0  0  0  0  0  0  0  0  0  0  0  0
  1  2  2  0  0  0  0 
  1  3  1  0  0  0  0 
  1  4  1  0  0  0  0 
  2  5  1  0  0  0  0 
  2  6  1  0  0  0  0 
  7  3  1  0  0  0  0 
  3  8  2  0  0  0  0 
  4  9  2  0  0  0  0 
  7  5  1  0  0  0  0 
  5 10  2  0  0  0  0 
  6 11  2  0  0  0  0 
  7 12  1  0  0  0  0 
 11  9  1  0  0  0  0 
 12 13  2  0  0  0  0 
 12 14  1  0  0  0  0 
 14 15  1  0  0  0  0 
 14 16  1  0  0  0  0 
 15 17  2  0  0  0  0 
 15 18  1  0  0  0  0 
 16 19  2  0  0  0  0 
 16 20  1  0  0  0  0 
 17 21  1  0  0  0  0 
 18 22  2  0  0  0  0 
 19 23  1  0  0  0  0 
 20 24  2  0  0  0  0 
 21 25  2  0  0  0  0 
 22 25  1  0  0  0  0 
 23 26  2  0  0  0  0 
 24 26  1  0  0  0  0 
 26 27  1  0  0  0  0 
M  END
> <Name>
2-(alpha-p-Chlorophenyl-alpha-phenylacetyl)indane-1,3-dione

> <Source>
DSSTox2DMolFile

> <Tox>
5.252

> <CAS>
3691-35-8

$$$$

  CDK

 11 11  0  0  0  0  0  0  0  0999 V2000
    4.4681   -3.6366   -0.1482 O   0  0  0  0  0  0  0  0  0  0  0  0
    4.6696   -2.6830    0.6019 C   0  0  0  0  0  0  0  0  0  0  0  0
    4.1026   -1.4282    0.4784 N   0  0  0  0  0  0  0  0  0  0  0  0
    5.5149   -2.7544    1.6947 N   0  0  0  0  0  0  0  0  0  0  0  0
    3.1733   -1.0791   -0.5855 C   0  0  0  0  0  0  0  0  0  0  0  0
    1.9302   -1.9902   -0.5139 C   0  0  0  0  0  0  0  0  0  0  0  0
    2.7551    0.3999   -0.4503 C   0  0  0  0  0  0  0  0  0  0  0  0
    3.8869   -1.2898   -1.9280 C   0  0  0  0  0  0  0  0  0  0  0  0
    1.0707   -1.7233    0.7229 C   0  0  0  0  0  0  0  0  0  0  0  0
    1.8931    0.6613    0.7859 C   0  0  0  0  0  0  0  0  0  0  0  0
    0.6748   -0.2546    0.8266 C   0  0  0  0  0  0  0  0  0  0  0  0
  1  2  2  0  0  0  0 
  3  2  1  0  0  0  0 
  4  2  1  0  0  0  0 
  3  5  1  0  0  0  0 
  5  6  1  0  0  0  0 
  5  7  1  0  0  0  0 
  5  8  1  0  0  0  0 
  6  9  1  0  0  0  0 
  7 10  1  0  0  0  0 
  9 11  1  0  0  0  0 
 10 11  1  0  0  0  0 
M  END
> <Name>
Urea, (1-methylcyclohexyl)-

> <Source>
Chemidplus3DMolFile

> <Tox>
2.177

> <CAS>
3692-18-0

$$$$

  CDK

 11 11  0  0  0  0  0  0  0  0999 V2000
    0.0000    0.0000    0.0000 C   0  0  0  0  0  0  0  0  0  0  0  0
   -1.3600   -0.1800   -0.0800 N   0  0  0  0  0  0  0  0  0  0  0  0
    0.8600   -1.1000    0.1800 C   0  0  0  0  0  0  0  0  0  0  0  0
    0.5400    1.3000   -0.0800 C   0  0  0  0  0  0  0  0  0  0  0  0
   -2.1000    0.6000   -0.9200 C   0  0  0  0  0  0  0  0  0  0  0  0
    2.2400   -0.9000    0.2600 C   0  0  0  0  0  0  0  0  0  0  0  0
    1.9200    1.5000    0.0000 C   0  0  0  0  0  0  0  0  0  0  0  0
   -3.4400    0.3400   -0.8000 N   0  0  0  0  0  0  0  0  0  0  0  0
   -1.4400    1.7200   -1.9600 S   0  0  0  0  0  0  0  0  0  0  0  0
    2.7800    0.3800    0.1800 C   0  0  0  0  0  0  0  0  0  0  0  0
    4.4800    0.6200    0.2800 Cl  0  0  0  0  0  0  0  0  0  0  0  0
  1  2  1  0  0  0  0 
  1  3  2  0  0  0  0 
  1  4  1  0  0  0  0 
  2  5  1  0  0  0  0 
  6  3  1  0  0  0  0 
  7  4  2  0  0  0  0 
  5  8  1  0  0  0  0 
  5  9  2  0  0  0  0 
 10  6  2  0  0  0  0 
 10  7  1  0  0  0  0 
 11 10  1  0  0  0  0 
M  END
> <Name>
Thiourea, (4-chlorophenyl)- (9CI)

> <Source>
NIH3DMolFile

> <Tox>
4.095

> <CAS>
3696-23-9

$$$$

  CDK

 21 20  0  0  0  0  0  0  0  0999 V2000
    3.1395   -0.5549    0.0000 C   0  0  0  0  0  0  0  0  0  0  0  0
    2.4016   -0.1860    0.0000 C   0  0  0  0  0  0  0  0  0  0  0  0
    2.0327   -0.9239    0.0000 C   0  0  0  0  0  0  0  0  0  0  0  0
    1.6637    0.1830    0.0000 O   0  0  0  0  0  0  0  0  0  0  0  0
    0.9752   -0.2716    0.0000 C   0  0  0  0  0  0  0  0  0  0  0  0
    1.0247   -1.0951    0.0000 O   0  0  0  0  0  0  0  0  0  0  0  0
    0.2373    0.0974    0.0000 C   0  0  0  0  0  0  0  0  0  0  0  0
   -0.5006    0.4663    0.0000 C   0  0  0  0  0  0  0  0  0  0  0  0
   -0.8695   -0.2716    0.0000 C   0  0  0  0  0  0  0  0  0  0  0  0
   -1.2385    0.8353    0.0000 S   0  0  0  0  0  0  0  0  0  0  0  0
   -0.4149   -0.9601    0.0000 O   0  0  0  0  0  0  0  0  0  0  0  0
   -1.6930   -0.3210    0.0000 O   0  0  0  0  0  0  0  0  0  0  0  0
   -1.2879    1.6588    0.0000 P   0  0  0  0  0  0  0  0  0  0  0  0
   -2.0620   -1.0589    0.0000 C   0  0  0  0  0  0  0  0  0  0  0  0
   -2.1114    1.6093    0.0000 S   0  0  0  0  0  0  0  0  0  0  0  0
   -0.4644    1.7082    0.0000 O   0  0  0  0  0  0  0  0  0  0  0  0
   -1.3373    2.4823    0.0000 O   0  0  0  0  0  0  0  0  0  0  0  0
   -1.3241   -1.4279    0.0000 C   0  0  0  0  0  0  0  0  0  0  0  0
   -2.4309   -1.7968    0.0000 C   0  0  0  0  0  0  0  0  0  0  0  0
   -0.0098    1.0197    0.0000 C   0  0  0  0  0  0  0  0  0  0  0  0
   -0.6488    2.9369    0.0000 C   0  0  0  0  0  0  0  0  0  0  0  0
  1  2  1  0  0  0  0 
  2  3  1  0  0  0  0 
  2  4  1  0  0  0  0 
  4  5  1  0  0  0  0 
  5  6  2  0  0  0  0 
  5  7  1  0  0  0  0 
  7  8  1  0  0  0  0 
  8  9  1  0  0  0  0 
  8 10  1  0  0  0  0 
  9 11  2  0  0  0  0 
  9 12  1  0  0  0  0 
 10 13  1  0  0  0  0 
 12 14  1  0  0  0  0 
 13 15  2  0  0  0  0 
 13 16  1  0  0  0  0 
 13 17  1  0  0  0  0 
 14 18  1  0  0  0  0 
 14 19  1  0  0  0  0 
 16 20  1  0  0  0  0 
 17 21  1  0  0  0  0 
M  END
> <Name>
Phosphorodithioic acid, O,O-dimethyl S-(1,2-diisopropoxycarbonyl)ethyl ester

> <Source>
Smiles

> <Tox>
1.952

> <CAS>
3700-90-1

$$$$

  CDK

 23 22  0  0  0  0  0  0  0  0999 V2000
    5.1334    0.4696    0.0000 C   0  0  0  0  0  0  0  0  0  0  0  0
    4.3185    0.3413    0.0000 C   0  0  0  0  0  0  0  0  0  0  0  0
    3.5035    0.2130    0.0000 C   0  0  0  0  0  0  0  0  0  0  0  0
    2.6886    0.0847    0.0000 C   0  0  0  0  0  0  0  0  0  0  0  0
    1.8736   -0.0436    0.0000 O   0  0  0  0  0  0  0  0  0  0  0  0
    1.3550    0.5980    0.0000 C   0  0  0  0  0  0  0  0  0  0  0  0
    1.6513    1.3679    0.0000 O   0  0  0  0  0  0  0  0  0  0  0  0
    0.5400    0.4696    0.0000 C   0  0  0  0  0  0  0  0  0  0  0  0
   -0.2749    0.3413    0.0000 C   0  0  0  0  0  0  0  0  0  0  0  0
   -1.0899    0.2130    0.0000 C   0  0  0  0  0  0  0  0  0  0  0  0
   -0.1466   -0.4736    0.0000 S   0  0  0  0  0  0  0  0  0  0  0  0
   -1.3862   -0.5569    0.0000 O   0  0  0  0  0  0  0  0  0  0  0  0
   -1.6085    0.8546    0.0000 O   0  0  0  0  0  0  0  0  0  0  0  0
   -0.7882   -0.9922    0.0000 P   0  0  0  0  0  0  0  0  0  0  0  0
   -2.4235    0.7263    0.0000 C   0  0  0  0  0  0  0  0  0  0  0  0
   -0.2696   -1.6339    0.0000 O   0  0  0  0  0  0  0  0  0  0  0  0
   -0.9165   -0.1773    0.0000 O   0  0  0  0  0  0  0  0  0  0  0  0
    0.0267   -0.8639    0.0000 O   0  0  0  0  0  0  0  0  0  0  0  0
   -3.2384    0.5980    0.0000 C   0  0  0  0  0  0  0  0  0  0  0  0
   -1.2129   -0.9472    0.0000 C   0  0  0  0  0  0  0  0  0  0  0  0
    0.5454   -1.5055    0.0000 C   0  0  0  0  0  0  0  0  0  0  0  0
   -4.0534    0.4696    0.0000 C   0  0  0  0  0  0  0  0  0  0  0  0
   -4.8683    0.3413    0.0000 C   0  0  0  0  0  0  0  0  0  0  0  0
  1  2  1  0  0  0  0 
  2  3  1  0  0  0  0 
  3  4  1  0  0  0  0 
  4  5  1  0  0  0  0 
  5  6  1  0  0  0  0 
  6  7  2  0  0  0  0 
  6  8  1  0  0  0  0 
  8  9  1  0  0  0  0 
  9 10  1  0  0  0  0 
  9 11  1  0  0  0  0 
 10 12  2  0  0  0  0 
 10 13  1  0  0  0  0 
 11 14  1  0  0  0  0 
 13 15  1  0  0  0  0 
 14 16  2  0  0  0  0 
 14 17  1  0  0  0  0 
 14 18  1  0  0  0  0 
 15 19  1  0  0  0  0 
 17 20  1  0  0  0  0 
 18 21  1  0  0  0  0 
 19 22  1  0  0  0  0 
 22 23  1  0  0  0  0 
M  END
> <Name>
Phosphorothioic acid, S-(1,2-dibutoxycarbonyl)ethyl O,O-dimethyl ester

> <Source>
Smiles

> <Tox>
2.857

> <CAS>
3700-98-9

$$$$

  CDK

 17 16  0  0  0  0  0  0  0  0999 V2000
    3.5523   -0.5033    0.0000 C   0  0  0  0  0  0  0  0  0  0  0  0
    2.7514   -0.7014    0.0000 C   0  0  0  0  0  0  0  0  0  0  0  0
    1.9506   -0.8996    0.0000 O   0  0  0  0  0  0  0  0  0  0  0  0
    1.3786   -0.3051    0.0000 C   0  0  0  0  0  0  0  0  0  0  0  0
    1.6074    0.4875    0.0000 O   0  0  0  0  0  0  0  0  0  0  0  0
    0.5777   -0.5033    0.0000 C   0  0  0  0  0  0  0  0  0  0  0  0
    0.7759   -1.3041    0.0000 C   0  0  0  0  0  0  0  0  0  0  0  0
   -0.2231   -0.7014    0.0000 O   0  0  0  0  0  0  0  0  0  0  0  0
    1.5685   -1.5329    0.0000 O   0  0  0  0  0  0  0  0  0  0  0  0
    0.1814   -1.8762    0.0000 C   0  0  0  0  0  0  0  0  0  0  0  0
   -0.7952   -0.1070    0.0000 P   0  0  0  0  0  0  0  0  0  0  0  0
   -0.5664    0.6857    0.0000 O   0  0  0  0  0  0  0  0  0  0  0  0
   -1.5960   -0.3051    0.0000 O   0  0  0  0  0  0  0  0  0  0  0  0
   -1.1384    1.2802    0.0000 C   0  0  0  0  0  0  0  0  0  0  0  0
   -2.1681    0.2894    0.0000 C   0  0  0  0  0  0  0  0  0  0  0  0
   -1.7104    1.8746    0.0000 C   0  0  0  0  0  0  0  0  0  0  0  0
   -2.7401    0.8838    0.0000 C   0  0  0  0  0  0  0  0  0  0  0  0
  1  2  1  0  0  0  0 
  2  3  1  0  0  0  0 
  3  4  1  0  0  0  0 
  4  5  2  0  0  0  0 
  4  6  1  0  0  0  0 
  6  7  1  0  0  0  0 
  6  8  1  0  0  0  0 
  7  9  2  0  0  0  0 
  7 10  1  0  0  0  0 
  8 11  1  0  0  0  0 
 11 12  1  0  0  0  0 
 11 13  1  0  0  0  0 
 12 14  1  0  0  0  0 
 13 15  1  0  0  0  0 
 14 16  1  0  0  0  0 
 15 17  1  0  0  0  0 
M  END
> <Name>
Butanoic acid, 2-((diethoxyphosphinyl)oxy)-3-oxo-, ethyl ester

> <Source>
Smiles

> <Tox>
3.180

> <CAS>
3730-54-9

$$$$

  CDK

 18 17  0  0  0  0  0  0  0  0999 V2000
    4.0136    3.4618    0.0000 S   0  0  0  0  0  0  0  0  0  0  0  0
    4.5153    4.3648    0.0000 P   0  0  0  0  0  0  0  0  0  0  0  0
    3.0102    3.4618    0.0000 C   0  0  0  0  0  0  0  0  0  0  0  0
    5.0171    5.2177    0.0000 O   0  0  0  0  0  0  0  0  0  0  0  0
    5.3682    3.8631    0.0000 O   0  0  0  0  0  0  0  0  0  0  0  0
    3.6624    4.8665    0.0000 O   0  0  0  0  0  0  0  0  0  0  0  0
    2.4584    2.6089    0.0000 C   0  0  0  0  0  0  0  0  0  0  0  0
    4.5153    6.0706    0.0000 C   0  0  0  0  0  0  0  0  0  0  0  0
    6.2713    4.3648    0.0000 C   0  0  0  0  0  0  0  0  0  0  0  0
    1.5051    2.6089    0.0000 N   0  0  0  0  0  0  0  0  0  0  0  0
    2.9601    1.7560    0.0000 O   0  0  0  0  0  0  0  0  0  0  0  0
    5.0171    6.9737    0.0000 C   0  0  0  0  0  0  0  0  0  0  0  0
    7.1242    3.8631    0.0000 C   0  0  0  0  0  0  0  0  0  0  0  0
    1.0034    1.7560    0.0000 C   0  0  0  0  0  0  0  0  0  0  0  0
    0.5017    0.8529    0.0000 C   0  0  0  0  0  0  0  0  0  0  0  0
    0.1505    2.2577    0.0000 C   0  0  0  0  0  0  0  0  0  0  0  0
    1.8563    1.2543    0.0000 C   0  0  0  0  0  0  0  0  0  0  0  0
    0.0000    0.0000    0.0000 N   0  0  0  0  0  0  0  0  0  0  0  0
  1  2  1  0  0  0  0 
  1  3  1  0  0  0  0 
  2  4  1  0  0  0  0 
  2  5  1  0  0  0  0 
  2  6  2  0  0  0  0 
  3  7  1  0  0  0  0 
  4  8  1  0  0  0  0 
  5  9  1  0  0  0  0 
  7 10  1  0  0  0  0 
  7 11  2  0  0  0  0 
  8 12  1  0  0  0  0 
  9 13  1  0  0  0  0 
 10 14  1  0  0  0  0 
 14 15  1  0  0  0  0 
 14 16  1  0  0  0  0 
 14 17  1  0  0  0  0 
 15 18  3  0  0  0  0 
M  END
> <Name>
Phosphorothioic acid, S-(2-((1-cyano-1-methylethyl)amino)-2-oxoethyl) O,O-diethyl ester

> <Source>
NIST2DMolFile

> <Tox>
4.925

> <CAS>
3734-95-0

$$$$

  CDK

 28 31  0  0  0  0  0  0  0  0999 V2000
    4.8506    3.8245    0.0000 N   0  0  0  0  0  0  0  0  0  0  0  0
    4.2910    2.5652    0.0000 C   0  0  0  0  0  0  0  0  0  0  0  0
    4.1510    5.0372    0.0000 N   0  0  0  0  0  0  0  0  0  0  0  0
    6.2032    4.1044    0.0000 C   0  0  0  0  0  0  0  0  0  0  0  0
    5.0838    1.3992    0.0000 C   0  0  0  0  0  0  0  0  0  0  0  0
    2.8917    2.3787    0.0000 C   0  0  0  0  0  0  0  0  0  0  0  0
    2.7518    5.1771    0.0000 C   0  0  0  0  0  0  0  0  0  0  0  0
    5.0838    6.0633    0.0000 C   0  0  0  0  0  0  0  0  0  0  0  0
    6.3898    5.5036    0.0000 C   0  0  0  0  0  0  0  0  0  0  0  0
    7.2760    3.1716    0.0000 O   0  0  0  0  0  0  0  0  0  0  0  0
    4.5242    0.1399    0.0000 C   0  0  0  0  0  0  0  0  0  0  0  0
    2.3320    1.1194    0.0000 C   0  0  0  0  0  0  0  0  0  0  0  0
    1.9589    4.0577    0.0000 C   0  0  0  0  0  0  0  0  0  0  0  0
    2.1921    6.4831    0.0000 C   0  0  0  0  0  0  0  0  0  0  0  0
    4.8040    7.4625    0.0000 O   0  0  0  0  0  0  0  0  0  0  0  0
    7.6024    6.2032    0.0000 C   0  0  0  0  0  0  0  0  0  0  0  0
    3.1249    0.0000    0.0000 C   0  0  0  0  0  0  0  0  0  0  0  0
    0.5597    4.1977    0.0000 C   0  0  0  0  0  0  0  0  0  0  0  0
    0.7929    6.6230    0.0000 C   0  0  0  0  0  0  0  0  0  0  0  0
    7.6024    7.6024    0.0000 C   0  0  0  0  0  0  0  0  0  0  0  0
    0.0000    5.4570    0.0000 C   0  0  0  0  0  0  0  0  0  0  0  0
    8.7685    8.3021    0.0000 S   0  0  0  0  0  0  0  0  0  0  0  0
    8.7685    9.7013    0.0000 C   0  0  0  0  0  0  0  0  0  0  0  0
    7.6024   10.4009    0.0000 C   0  0  0  0  0  0  0  0  0  0  0  0
    9.9811   10.4009    0.0000 C   0  0  0  0  0  0  0  0  0  0  0  0
    7.6024   11.8001    0.0000 C   0  0  0  0  0  0  0  0  0  0  0  0
    9.9811   11.8001    0.0000 C   0  0  0  0  0  0  0  0  0  0  0  0
    8.7685   12.4997    0.0000 C   0  0  0  0  0  0  0  0  0  0  0  0
  1  2  1  0  0  0  0 
  1  3  1  0  0  0  0 
  1  4  1  0  0  0  0 
  2  5  2  0  0  0  0 
  2  6  1  0  0  0  0 
  3  7  1  0  0  0  0 
  3  8  1  0  0  0  0 
  9  4  1  0  0  0  0 
  4 10  2  0  0  0  0 
  5 11  1  0  0  0  0 
 12  6  2  0  0  0  0 
  7 13  2  0  0  0  0 
  7 14  1  0  0  0  0 
  8 15  2  0  0  0  0 
  8  9  1  0  0  0  0 
  9 16  1  0  0  0  0 
 11 17  2  0  0  0  0 
 17 12  1  0  0  0  0 
 13 18  1  0  0  0  0 
 19 14  2  0  0  0  0 
 16 20  1  0  0  0  0 
 18 21  2  0  0  0  0 
 21 19  1  0  0  0  0 
 20 22  1  0  0  0  0 
 22 23  1  0  0  0  0 
 23 24  2  0  0  0  0 
 23 25  1  0  0  0  0 
 24 26  1  0  0  0  0 
 27 25  2  0  0  0  0 
 26 28  2  0  0  0  0 
 28 27  1  0  0  0  0 
M  END
> <Name>
3,5-Pyrazolidinedione, 1,2-diphenyl-4-(2-(phenylthio)ethyl)-

> <Source>
IndexNet2DMolFile

> <Tox>
2.936

> <CAS>
3736-92-3

$$$$

  CDK

 17 17  0  0  0  0  0  0  0  0999 V2000
    3.4662    2.5051    0.0000 C   0  0  0  0  0  0  0  0  0  0  0  0
    4.3322    3.0106    0.0000 C   0  0  0  0  0  0  0  0  0  0  0  0
    3.4662    1.4998    0.0000 C   0  0  0  0  0  0  0  0  0  0  0  0
    2.5996    3.0050    0.0000 O   0  0  0  0  0  0  0  0  0  0  0  0
    5.2035    2.5051    0.0000 C   0  0  0  0  0  0  0  0  0  0  0  0
    4.3322    0.9999    0.0000 C   0  0  0  0  0  0  0  0  0  0  0  0
    1.7331    2.5107    0.0000 P   0  0  0  0  0  0  0  0  0  0  0  0
    5.2035    1.4998    0.0000 C   0  0  0  0  0  0  0  0  0  0  0  0
    6.0603    3.0106    0.0000 C   0  0  0  0  0  0  0  0  0  0  0  0
    2.2275    1.6498    0.0000 S   0  0  0  0  0  0  0  0  0  0  0  0
    1.2277    3.3773    0.0000 O   0  0  0  0  0  0  0  0  0  0  0  0
    0.8665    2.0164    0.0000 O   0  0  0  0  0  0  0  0  0  0  0  0
    6.0603    0.9999    0.0000 S   0  0  0  0  0  0  0  0  0  0  0  0
    1.7220    4.2438    0.0000 C   0  0  0  0  0  0  0  0  0  0  0  0
    0.0000    2.5163    0.0000 C   0  0  0  0  0  0  0  0  0  0  0  0
    6.9213    1.5053    0.0000 C   0  0  0  0  0  0  0  0  0  0  0  0
    6.0603    0.0000    0.0000 O   0  0  0  0  0  0  0  0  0  0  0  0
  1  2  2  0  0  0  0 
  3  1  1  0  0  0  0 
  1  4  1  0  0  0  0 
  2  5  1  0  0  0  0 
  6  3  2  0  0  0  0 
  4  7  1  0  0  0  0 
  5  8  2  0  0  0  0 
  5  9  1  0  0  0  0 
  8  6  1  0  0  0  0 
  7 10  2  0  0  0  0 
  7 11  1  0  0  0  0 
  7 12  1  0  0  0  0 
  8 13  1  0  0  0  0 
 11 14  1  0  0  0  0 
 12 15  1  0  0  0  0 
 13 16  1  0  0  0  0 
 13 17  2  0  0  0  0 
M  END
> <Name>
Phosphorothioic acid, O,O-dimethyl O-(3-methyl-4-(methylsulfinyl)phenyl) ester (9CI)

> <Source>
NIST2DMolFile

> <Tox>
3.372

> <CAS>
3761-41-9

$$$$

  CDK

 22 23  0  0  0  0  0  0  0  0999 V2000
    2.4249    4.2000    0.0000 C   0  0  0  0  0  0  0  0  0  0  0  0
    1.2124    3.5000    0.0000 C   0  0  0  0  0  0  0  0  0  0  0  0
    2.4249    5.6000    0.0000 C   0  0  0  0  0  0  0  0  0  0  0  0
    3.6373    3.5000    0.0000 C   0  0  0  0  0  0  0  0  0  0  0  0
    1.2124    2.1000    0.0000 C   0  0  0  0  0  0  0  0  0  0  0  0
    3.6373    6.3000    0.0000 C   0  0  0  0  0  0  0  0  0  0  0  0
    1.2124    6.3000    0.0000 C   0  0  0  0  0  0  0  0  0  0  0  0
    3.6373    2.1000    0.0000 C   0  0  0  0  0  0  0  0  0  0  0  0
    4.8497    4.2000    0.0000 C   0  0  0  0  0  0  0  0  0  0  0  0
    0.0000    1.4000    0.0000 C   0  0  0  0  0  0  0  0  0  0  0  0
    3.6373    7.7000    0.0000 C   0  0  0  0  0  0  0  0  0  0  0  0
    4.8497    5.6000    0.0000 O   0  0  0  0  0  0  0  0  0  0  0  0
    1.2124    7.7000    0.0000 C   0  0  0  0  0  0  0  0  0  0  0  0
    4.8497    1.4000    0.0000 C   0  0  0  0  0  0  0  0  0  0  0  0
    2.4249    1.4000    0.0000 O   0  0  0  0  0  0  0  0  0  0  0  0
    6.0622    3.5000    0.0000 C   0  0  0  0  0  0  0  0  0  0  0  0
    2.4249    8.4000    0.0000 C   0  0  0  0  0  0  0  0  0  0  0  0
    4.8497    8.4000    0.0000 C   0  0  0  0  0  0  0  0  0  0  0  0
    0.0000    8.4000    0.0000 C   0  0  0  0  0  0  0  0  0  0  0  0
    6.0622    2.1000    0.0000 C   0  0  0  0  0  0  0  0  0  0  0  0
    4.8497    0.0000    0.0000 C   0  0  0  0  0  0  0  0  0  0  0  0
    7.2746    4.2000    0.0000 C   0  0  0  0  0  0  0  0  0  0  0  0
  1  2  1  0  0  0  0 
  1  3  1  0  0  0  0 
  1  4  1  0  0  0  0 
  2  5  1  0  0  0  0 
  6  3  1  0  0  0  0 
  3  7  2  0  0  0  0 
  8  4  1  0  0  0  0 
  4  9  2  0  0  0  0 
  5 10  1  0  0  0  0 
  6 11  2  0  0  0  0 
  6 12  1  0  0  0  0 
  7 13  1  0  0  0  0 
  8 14  2  0  0  0  0 
  8 15  1  0  0  0  0 
  9 16  1  0  0  0  0 
 17 11  1  0  0  0  0 
 11 18  1  0  0  0  0 
 13 17  2  0  0  0  0 
 13 19  1  0  0  0  0 
 20 14  1  0  0  0  0 
 14 21  1  0  0  0  0 
 16 20  2  0  0  0  0 
 16 22  1  0  0  0  0 
M  END
> <Name>
2,4-Xylenol, 6,6'-butylidenebis-

> <Source>
Name2DMolFile

> <Tox>
1.734

> <CAS>
3772-23-4

$$$$

  CDK

 20 21  0  0  0  0  0  0  0  0999 V2000
    0.0000    1.2375    0.0000 N   0  0  0  0  0  0  0  0  0  0  0  0
    0.0000    0.4125    0.0000 C   0  0  0  0  0  0  0  0  0  0  0  0
    0.7145    1.6500    0.0000 C   0  0  0  0  0  0  0  0  0  0  0  0
   -0.7145    1.6500    0.0000 C   0  0  0  0  0  0  0  0  0  0  0  0
   -0.0000   -0.4125    0.0000 C   0  0  0  0  0  0  0  0  0  0  0  0
    1.4289    1.2375    0.0000 S   0  0  0  0  0  0  0  0  0  0  0  0
    0.7145    2.4750    0.0000 S   0  0  0  0  0  0  0  0  0  0  0  0
   -0.7145    2.4750    0.0000 N   0  0  0  0  0  0  0  0  0  0  0  0
   -1.2751    1.0448    0.0000 C   0  0  0  0  0  0  0  0  0  0  0  0
   -0.0000   -1.2375    0.0000 N   0  0  0  0  0  0  0  0  0  0  0  0
    0.0000    2.8875    0.0000 C   0  0  0  0  0  0  0  0  0  0  0  0
   -0.7145   -1.6500    0.0000 C   0  0  0  0  0  0  0  0  0  0  0  0
    0.7145   -1.6500    0.0000 C   0  0  0  0  0  0  0  0  0  0  0  0
   -0.2438    3.6757    0.0000 C   0  0  0  0  0  0  0  0  0  0  0  0
   -1.4289   -1.2375    0.0000 S   0  0  0  0  0  0  0  0  0  0  0  0
   -0.7145   -2.4750    0.0000 S   0  0  0  0  0  0  0  0  0  0  0  0
    0.7145   -2.4750    0.0000 N   0  0  0  0  0  0  0  0  0  0  0  0
    1.2751   -1.0448    0.0000 C   0  0  0  0  0  0  0  0  0  0  0  0
   -0.0000   -2.8875    0.0000 C   0  0  0  0  0  0  0  0  0  0  0  0
    0.2438   -3.6757    0.0000 C   0  0  0  0  0  0  0  0  0  0  0  0
  1  2  1  0  0  0  0 
  1  3  1  0  0  0  0 
  1  4  1  0  0  0  0 
  2  5  1  0  0  0  0 
  3  6  2  0  0  0  0 
  3  7  1  0  0  0  0 
  8  4  1  0  0  0  0 
  4  9  1  0  0  0  0 
  5 10  1  0  0  0  0 
  7 11  1  0  0  0  0 
 11  8  1  0  0  0  0 
 10 12  1  0  0  0  0 
 10 13  1  0  0  0  0 
 11 14  1  0  0  0  0 
 12 15  2  0  0  0  0 
 12 16  1  0  0  0  0 
 17 13  1  0  0  0  0 
 13 18  1  0  0  0  0 
 16 19  1  0  0  0  0 
 19 17  1  0  0  0  0 
 19 20  1  0  0  0  0 
M  END
> <Name>
2H-1,3,5-Thiadiazine-2-thione, 3,3'-(1,2-ethanediyl)bis(tetrahydro-4,6-dimethyl-

> <Source>
Smiles

> <Tox>
1.846

> <CAS>
3773-49-7

$$$$

  CDK

 14 15  0  0  0  0  0  0  0  0999 V2000
   -0.6199   -1.7353   -0.4542 C   0  0  0  0  0  0  0  0  0  0  0  0
    0.6200   -1.7367    0.4475 C   0  0  0  0  0  0  0  0  0  0  0  0
   -1.5093   -0.7536    0.0558 O   0  0  0  0  0  0  0  0  0  0  0  0
    1.5101   -0.7546   -0.0604 O   0  0  0  0  0  0  0  0  0  0  0  0
   -2.6577   -0.5706   -0.7588 C   0  0  0  0  0  0  0  0  0  0  0  0
    2.6535   -0.5666    0.7600 C   0  0  0  0  0  0  0  0  0  0  0  0
   -3.4778    0.5420   -0.1147 C   0  0  0  0  0  0  0  0  0  0  0  0
    3.4771    0.5428    0.1149 C   0  0  0  0  0  0  0  0  0  0  0  0
   -4.2985    0.2569    1.0972 C   0  0  0  0  0  0  0  0  0  0  0  0
   -2.9603    1.9304   -0.3778 C   0  0  0  0  0  0  0  0  0  0  0  0
   -4.9096    0.3636   -0.1912 O   0  0  0  0  0  0  0  0  0  0  0  0
    4.3108    0.2496   -1.0863 C   0  0  0  0  0  0  0  0  0  0  0  0
    2.9534    1.9321    0.3605 C   0  0  0  0  0  0  0  0  0  0  0  0
    4.9085    0.3687    0.2074 O   0  0  0  0  0  0  0  0  0  0  0  0
  1  2  1  0  0  0  0 
  1  3  1  0  0  0  0 
  2  4  1  0  0  0  0 
  3  5  1  0  0  0  0 
  4  6  1  0  0  0  0 
  5  7  1  0  0  0  0 
  6  8  1  0  0  0  0 
  7  9  1  0  0  0  0 
  7 10  1  0  0  0  0 
  7 11  1  0  0  0  0 
  8 12  1  0  0  0  0 
  8 13  1  0  0  0  0 
  8 14  1  0  0  0  0 
  9 11  1  0  0  0  0 
 12 14  1  0  0  0  0 
M  END
> <Name>
Oxirane, 2,2'-(1,2-ethanediylbis(oxymethylene))bis(2-methyl- (9CI)

> <Source>
DougDB3DMolFile

> <Tox>
1.433

> <CAS>
3775-85-7

$$$$

  CDK

 28 30  0  0  0  0  0  0  0  0999 V2000
   11.7535    6.0167    0.0000 C   0  0  0  0  0  0  0  0  0  0  0  0
   10.3542    5.7835    0.0000 C   0  0  0  0  0  0  0  0  0  0  0  0
    9.8878    4.4775    0.0000 C   0  0  0  0  0  0  0  0  0  0  0  0
   10.7740    3.4048    0.0000 O   0  0  0  0  0  0  0  0  0  0  0  0
    8.4886    4.1977    0.0000 C   0  0  0  0  0  0  0  0  0  0  0  0
    7.2760    3.4981    0.0000 C   0  0  0  0  0  0  0  0  0  0  0  0
    8.4886    5.5969    0.0000 C   0  0  0  0  0  0  0  0  0  0  0  0
    9.0017    2.8917    0.0000 N   0  0  0  0  0  0  0  0  0  0  0  0
    6.0633    4.1977    0.0000 C   0  0  0  0  0  0  0  0  0  0  0  0
    7.2760    6.2965    0.0000 C   0  0  0  0  0  0  0  0  0  0  0  0
   10.3542    2.6585    0.0000 C   0  0  0  0  0  0  0  0  0  0  0  0
    8.0689    1.8190    0.0000 C   0  0  0  0  0  0  0  0  0  0  0  0
    6.0633    5.5969    0.0000 N   0  0  0  0  0  0  0  0  0  0  0  0
   10.8207    1.3526    0.0000 C   0  0  0  0  0  0  0  0  0  0  0  0
    8.5819    0.5130    0.0000 C   0  0  0  0  0  0  0  0  0  0  0  0
    4.8506    6.2965    0.0000 C   0  0  0  0  0  0  0  0  0  0  0  0
    9.9345    0.2798    0.0000 C   0  0  0  0  0  0  0  0  0  0  0  0
    3.6380    5.5969    0.0000 C   0  0  0  0  0  0  0  0  0  0  0  0
    2.4253    6.2965    0.0000 C   0  0  0  0  0  0  0  0  0  0  0  0
    1.2127    5.5969    0.0000 C   0  0  0  0  0  0  0  0  0  0  0  0
    0.0000    6.2965    0.0000 O   0  0  0  0  0  0  0  0  0  0  0  0
    1.2127    4.1977    0.0000 C   0  0  0  0  0  0  0  0  0  0  0  0
    2.4253    3.4981    0.0000 C   0  0  0  0  0  0  0  0  0  0  0  0
    0.0000    3.4981    0.0000 C   0  0  0  0  0  0  0  0  0  0  0  0
    2.4253    2.0988    0.0000 C   0  0  0  0  0  0  0  0  0  0  0  0
    0.0000    2.0988    0.0000 C   0  0  0  0  0  0  0  0  0  0  0  0
    1.2127    1.3992    0.0000 C   0  0  0  0  0  0  0  0  0  0  0  0
    1.2127    0.0000    0.0000 F   0  0  0  0  0  0  0  0  0  0  0  0
  1  2  1  0  0  0  0 
  2  3  1  0  0  0  0 
  3  4  2  0  0  0  0 
  3  5  1  0  0  0  0 
  5  6  1  0  0  0  0 
  5  7  1  0  0  0  0 
  5  8  1  0  0  0  0 
  6  9  1  0  0  0  0 
 10  7  1  0  0  0  0 
  8 11  1  0  0  0  0 
  8 12  1  0  0  0  0 
  9 13  1  0  0  0  0 
 13 10  1  0  0  0  0 
 11 14  1  0  0  0  0 
 15 12  1  0  0  0  0 
 13 16  1  0  0  0  0 
 14 17  1  0  0  0  0 
 17 15  1  0  0  0  0 
 16 18  1  0  0  0  0 
 18 19  1  0  0  0  0 
 19 20  1  0  0  0  0 
 20 21  2  0  0  0  0 
 20 22  1  0  0  0  0 
 22 23  2  0  0  0  0 
 22 24  1  0  0  0  0 
 23 25  1  0  0  0  0 
 26 24  2  0  0  0  0 
 25 27  2  0  0  0  0 
 27 26  1  0  0  0  0 
 27 28  1  0  0  0  0 
M  END
> <Name>
1-Butanone, 1-(4-fluorophenyl)-4-(4'-(1-oxopropyl)(1,4'-bipiperidin)-1'-yl)- (9CI)

> <Source>
IndexNet2DMolFile

> <Tox>
2.697

> <CAS>
3781-28-0

$$$$

  CDK

 13 14  0  0  0  0  0  0  0  0999 V2000
    4.9721    0.6464    0.0000 C   0  0  0  0  0  0  0  0  0  0  0  0
    4.4749    1.4916    0.0000 O   0  0  0  0  0  0  0  0  0  0  0  0
    3.4805    1.4916    0.0000 P   0  0  0  0  0  0  0  0  0  0  0  0
    3.9777    2.3866    0.0000 S   0  0  0  0  0  0  0  0  0  0  0  0
    2.5855    1.9888    0.0000 O   0  0  0  0  0  0  0  0  0  0  0  0
    3.4805    0.4972    0.0000 O   0  0  0  0  0  0  0  0  0  0  0  0
    1.7402    1.4916    0.0000 C   0  0  0  0  0  0  0  0  0  0  0  0
    2.5855    0.0000    0.0000 C   0  0  0  0  0  0  0  0  0  0  0  0
    1.7402    0.4972    0.0000 C   0  0  0  0  0  0  0  0  0  0  0  0
    0.8950    1.9888    0.0000 C   0  0  0  0  0  0  0  0  0  0  0  0
    0.8950    0.0000    0.0000 C   0  0  0  0  0  0  0  0  0  0  0  0
    0.0000    1.4916    0.0000 C   0  0  0  0  0  0  0  0  0  0  0  0
    0.0000    0.4972    0.0000 C   0  0  0  0  0  0  0  0  0  0  0  0
  1  2  1  0  0  0  0 
  2  3  1  0  0  0  0 
  3  4  2  0  0  0  0 
  5  3  1  0  0  0  0 
  3  6  1  0  0  0  0 
  7  5  1  0  0  0  0 
  6  8  1  0  0  0  0 
  7  9  2  0  0  0  0 
 10  7  1  0  0  0  0 
  8  9  1  0  0  0  0 
  9 11  1  0  0  0  0 
 12 10  2  0  0  0  0 
 11 13  2  0  0  0  0 
 13 12  1  0  0  0  0 
M  END
> <Name>
4H-(1.3.2)Benzodioxaphosphorine, 2-methoxy-, 2-sulfide

> <Source>
NIST2DMolFile

> <Tox>
3.326

> <CAS>
3811-49-2

$$$$

  CDK

 20 20  0  0  0  0  0  0  0  0999 V2000
    0.9932   -1.0452    6.3163 Cl  0  0  0  0  0  0  0  0  0  0  0  0
    0.8998   -0.5638    4.6668 C   0  0  0  0  0  0  0  0  0  0  0  0
    2.0295   -0.0588    4.0229 C   0  0  0  0  0  0  0  0  0  0  0  0
   -0.3050   -0.6794    3.9733 C   0  0  0  0  0  0  0  0  0  0  0  0
    1.9544    0.3305    2.6857 C   0  0  0  0  0  0  0  0  0  0  0  0
   -0.3801   -0.2900    2.6361 C   0  0  0  0  0  0  0  0  0  0  0  0
    0.7496    0.2148    1.9922 C   0  0  0  0  0  0  0  0  0  0  0  0
    0.6679    0.6372    0.5476 C   0  0  0  0  0  0  0  0  0  0  0  0
    0.2801    2.1110    0.4102 C   0  0  0  0  0  0  0  0  0  0  0  0
    0.2348    2.5378   -1.0579 C   0  0  0  0  0  0  0  0  0  0  0  0
   -0.1843    3.9994   -1.1994 C   0  0  0  0  0  0  0  0  0  0  0  0
   -0.1906    4.4436   -2.6553 C   0  0  0  0  0  0  0  0  0  0  0  0
   -0.6016    5.8022   -2.7194 O   0  0  0  0  0  0  0  0  0  0  0  0
   -0.6584    6.3524   -3.9741 C   0  0  0  0  0  0  0  0  0  0  0  0
   -0.3872    5.7710   -5.0154 O   0  0  0  0  0  0  0  0  0  0  0  0
   -1.1075    7.7937   -3.8648 C   0  0  0  0  0  0  0  0  0  0  0  0
   -1.2849    8.4695   -5.2192 C   0  0  0  0  0  0  0  0  0  0  0  0
   -1.7856    9.8842   -5.0638 C   0  0  0  0  0  0  0  0  0  0  0  0
   -1.9529   10.5131   -6.2532 O   0  0  0  0  0  0  0  0  0  0  0  0
   -2.0002   10.4190   -3.9836 O   0  0  0  0  0  0  0  0  0  0  0  0
  1  2  1  0  0  0  0 
  3  2  2  0  0  0  0 
  4  2  1  0  0  0  0 
  5  3  1  0  0  0  0 
  6  4  2  0  0  0  0 
  7  5  2  0  0  0  0 
  7  6  1  0  0  0  0 
  8  7  1  0  0  0  0 
  9  8  1  0  0  0  0 
 10  9  1  0  0  0  0 
 10 11  1  0  0  0  0 
 11 12  1  0  0  0  0 
 13 12  1  0  0  0  0 
 13 14  1  0  0  0  0 
 15 14  2  0  0  0  0 
 16 14  1  0  0  0  0 
 16 17  1  0  0  0  0 
 17 18  1  0  0  0  0 
 19 18  1  0  0  0  0 
 20 18  2  0  0  0  0 
M  END
> <Name>
Succinic acid, alpha-butyl-p-chlorobenzyl ester

> <Source>
Chemidplus3DMolFile

> <Tox>
2.422

> <CAS>
3818-90-4

$$$$

  CDK

 19 18  0  0  0  0  0  0  0  0999 V2000
    2.9308   -0.6601    0.0000 C   0  0  0  0  0  0  0  0  0  0  0  0
    2.2697   -1.1536    0.0000 C   0  0  0  0  0  0  0  0  0  0  0  0
    1.6085   -1.6471    0.0000 N   0  0  0  0  0  0  0  0  0  0  0  0
    0.8506   -1.3213    0.0000 C   0  0  0  0  0  0  0  0  0  0  0  0
    0.7538   -0.5020    0.0000 O   0  0  0  0  0  0  0  0  0  0  0  0
    0.1894   -1.8148    0.0000 O   0  0  0  0  0  0  0  0  0  0  0  0
   -0.5685   -1.4889    0.0000 C   0  0  0  0  0  0  0  0  0  0  0  0
   -1.3264   -1.1631    0.0000 C   0  0  0  0  0  0  0  0  0  0  0  0
   -2.0844   -0.8373    0.0000 S   0  0  0  0  0  0  0  0  0  0  0  0
   -2.1812   -0.0180    0.0000 C   0  0  0  0  0  0  0  0  0  0  0  0
   -2.2780    0.8013    0.0000 S   0  0  0  0  0  0  0  0  0  0  0  0
   -1.6168    1.2948    0.0000 P   0  0  0  0  0  0  0  0  0  0  0  0
   -2.1103    1.9559    0.0000 S   0  0  0  0  0  0  0  0  0  0  0  0
   -1.1233    0.6336    0.0000 O   0  0  0  0  0  0  0  0  0  0  0  0
   -0.9557    1.7883    0.0000 O   0  0  0  0  0  0  0  0  0  0  0  0
   -1.4492   -0.1243    0.0000 C   0  0  0  0  0  0  0  0  0  0  0  0
   -0.1977    1.4624    0.0000 C   0  0  0  0  0  0  0  0  0  0  0  0
    0.1281    2.2204    0.0000 C   0  0  0  0  0  0  0  0  0  0  0  0
    0.5602    1.1366    0.0000 C   0  0  0  0  0  0  0  0  0  0  0  0
  1  2  1  0  0  0  0 
  2  3  1  0  0  0  0 
  3  4  1  0  0  0  0 
  4  5  2  0  0  0  0 
  4  6  1  0  0  0  0 
  6  7  1  0  0  0  0 
  7  8  1  0  0  0  0 
  8  9  1  0  0  0  0 
  9 10  1  0  0  0  0 
 10 11  1  0  0  0  0 
 11 12  1  0  0  0  0 
 12 13  2  0  0  0  0 
 12 14  1  0  0  0  0 
 12 15  1  0  0  0  0 
 14 16  1  0  0  0  0 
 15 17  1  0  0  0  0 
 17 18  1  0  0  0  0 
 17 19  1  0  0  0  0 
M  END
> <Name>
Carbamic acid, ethyl-, 2-(((mercaptomethyl)thio)ethyl) ester, S-ester with O-isopropyl O-methyl phosphorodithioate

> <Source>
Smiles

> <Tox>
4.611

> <CAS>
3853-74-5

$$$$

  CDK

 13 12  0  0  0  0  0  0  0  0999 V2000
   -1.2724   -0.4221    0.0000 C   0  0  0  0  0  0  0  0  0  0  0  0
   -0.5580   -0.8346    0.0000 O   0  0  0  0  0  0  0  0  0  0  0  0
    0.1565   -0.4221    0.0000 P   0  0  0  0  0  0  0  0  0  0  0  0
   -0.2560    0.2924    0.0000 O   0  0  0  0  0  0  0  0  0  0  0  0
    0.5690   -1.1365    0.0000 O   0  0  0  0  0  0  0  0  0  0  0  0
    0.8710   -0.0096    0.0000 O   0  0  0  0  0  0  0  0  0  0  0  0
    1.3940   -1.1365    0.0000 C   0  0  0  0  0  0  0  0  0  0  0  0
    0.1565    0.4029    0.0000 C   0  0  0  0  0  0  0  0  0  0  0  0
   -0.5580    0.8154    0.0000 Cl  0  0  0  0  0  0  0  0  0  0  0  0
   -0.2560    1.1174    0.0000 C   0  0  0  0  0  0  0  0  0  0  0  0
   -1.0810    1.1174    0.0000 Cl  0  0  0  0  0  0  0  0  0  0  0  0
    0.4585    1.5299    0.0000 Cl  0  0  0  0  0  0  0  0  0  0  0  0
   -0.6685    1.8319    0.0000 Cl  0  0  0  0  0  0  0  0  0  0  0  0
  1  2  1  0  0  0  0 
  2  3  1  0  0  0  0 
  3  4  2  0  0  0  0 
  3  5  1  0  0  0  0 
  3  6  1  0  0  0  0 
  5  7  1  0  0  0  0 
  6  8  1  0  0  0  0 
  8  9  1  0  0  0  0 
  8 10  1  0  0  0  0 
 10 11  1  0  0  0  0 
 10 12  1  0  0  0  0 
 10 13  1  0  0  0  0 
M  END
> <Name>
Phosphoric acid, dimethyl 1,2,2,2-tetrachloroethyl ester

> <Source>
Smiles

> <Tox>
4.319

> <CAS>
3862-21-3

$$$$

  CDK

 18 17  0  0  0  0  0  0  0  0999 V2000
    3.6373    2.4249    0.0000 N   0  0  0  0  0  0  0  0  0  0  0  0
    2.4249    3.1249    0.0000 N   0  0  0  0  0  0  0  0  0  0  0  0
    4.8497    3.1249    0.0000 C   0  0  0  0  0  0  0  0  0  0  0  0
    1.2124    2.4249    0.0000 C   0  0  0  0  0  0  0  0  0  0  0  0
    5.5497    1.9124    0.0000 C   0  0  0  0  0  0  0  0  0  0  0  0
    6.0622    3.8249    0.0000 C   0  0  0  0  0  0  0  0  0  0  0  0
    4.1497    4.3373    0.0000 C   0  0  0  0  0  0  0  0  0  0  0  0
    1.9124    1.2124    0.0000 C   0  0  0  0  0  0  0  0  0  0  0  0
    0.0000    1.7249    0.0000 C   0  0  0  0  0  0  0  0  0  0  0  0
    0.5124    3.6373    0.0000 C   0  0  0  0  0  0  0  0  0  0  0  0
    4.8497    0.7000    0.0000 O   0  0  0  0  0  0  0  0  0  0  0  0
    6.9497    1.9124    0.0000 O   0  0  0  0  0  0  0  0  0  0  0  0
    1.2124    0.0000    0.0000 O   0  0  0  0  0  0  0  0  0  0  0  0
    3.3124    1.2124    0.0000 O   0  0  0  0  0  0  0  0  0  0  0  0
    7.6497    0.7000    0.0000 C   0  0  0  0  0  0  0  0  0  0  0  0
    4.0124    0.0000    0.0000 C   0  0  0  0  0  0  0  0  0  0  0  0
    9.0497    0.7000    0.0000 C   0  0  0  0  0  0  0  0  0  0  0  0
    5.4124    0.0000    0.0000 C   0  0  0  0  0  0  0  0  0  0  0  0
  1  2  2  0  0  0  0 
  1  3  1  0  0  0  0 
  2  4  1  0  0  0  0 
  5  3  1  0  0  0  0 
  3  6  1  0  0  0  0 
  3  7  1  0  0  0  0 
  8  4  1  0  0  0  0 
  4  9  1  0  0  0  0 
  4 10  1  0  0  0  0 
  5 11  2  0  0  0  0 
  5 12  1  0  0  0  0 
  8 13  2  0  0  0  0 
  8 14  1  0  0  0  0 
 12 15  1  0  0  0  0 
 14 16  1  0  0  0  0 
 15 17  1  0  0  0  0 
 16 18  1  0  0  0  0 
M  END
> <Name>
Propionic acid, 2,2'-azobis(2-methyl-, diethyl ester

> <Source>
Name2DMolFile

> <Tox>
2.676

> <CAS>
3879-07-0

$$$$

  CDK

 12 12  0  0  0  0  0  0  0  0999 V2000
    6.9961    0.0000    0.0000 C   0  0  0  0  0  0  0  0  0  0  0  0
    6.2965    1.2127    0.0000 N   0  0  0  0  0  0  0  0  0  0  0  0
    4.8973    1.2127    0.0000 C   0  0  0  0  0  0  0  0  0  0  0  0
    4.1977    0.0000    0.0000 O   0  0  0  0  0  0  0  0  0  0  0  0
    4.1977    2.4253    0.0000 O   0  0  0  0  0  0  0  0  0  0  0  0
    2.7984    2.4253    0.0000 C   0  0  0  0  0  0  0  0  0  0  0  0
    2.0988    1.2127    0.0000 C   0  0  0  0  0  0  0  0  0  0  0  0
    2.0988    3.6380    0.0000 C   0  0  0  0  0  0  0  0  0  0  0  0
    0.6996    1.2127    0.0000 C   0  0  0  0  0  0  0  0  0  0  0  0
    0.6996    3.6380    0.0000 C   0  0  0  0  0  0  0  0  0  0  0  0
    2.7984    4.8506    0.0000 Cl  0  0  0  0  0  0  0  0  0  0  0  0
    0.0000    2.4253    0.0000 C   0  0  0  0  0  0  0  0  0  0  0  0
  1  2  1  0  0  0  0 
  2  3  1  0  0  0  0 
  3  4  2  0  0  0  0 
  3  5  1  0  0  0  0 
  5  6  1  0  0  0  0 
  6  7  2  0  0  0  0 
  6  8  1  0  0  0  0 
  7  9  1  0  0  0  0 
 10  8  2  0  0  0  0 
  8 11  1  0  0  0  0 
  9 12  2  0  0  0  0 
 12 10  1  0  0  0  0 
M  END
> <Name>
Carbamic acid, methyl-, 2-chlorophenyl ester

> <Source>
IndexNet2DMolFile

> <Tox>
2.457

> <CAS>
3942-54-9

$$$$

  CDK

  6  6  0  0  0  0  0  0  0  0999 V2000
    1.3019    0.0000    0.0000 N   0  0  0  0  0  0  0  0  0  0  0  0
    0.3125    0.0000    0.0000 N   0  0  0  0  0  0  0  0  0  0  0  0
    1.6144    0.9374    0.0000 C   0  0  0  0  0  0  0  0  0  0  0  0
    0.0000    0.9374    0.0000 C   0  0  0  0  0  0  0  0  0  0  0  0
    0.8332    1.5102    0.0000 S   0  0  0  0  0  0  0  0  0  0  0  0
    2.6039    1.3019    0.0000 N   0  0  0  0  0  0  0  0  0  0  0  0
  1  2  1  0  0  0  0 
  3  1  2  0  0  0  0 
  2  4  2  0  0  0  0 
  5  3  1  0  0  0  0 
  3  6  1  0  0  0  0 
  4  5  1  0  0  0  0 
M  END
> <Name>
1,3,4-Thiadiazole, 2-amino-

> <Source>
NIST2DMolFile

> <Tox>
2.602

> <CAS>
4005-51-0

$$$$

  CDK

 14 15  0  0  0  0  0  0  0  0999 V2000
    2.4098    0.7988    0.0377 N   0  0  0  0  0  0  0  0  0  0  0  0
    2.2448    2.1093    0.0971 C   0  0  0  0  0  0  0  0  0  0  0  0
    1.2993   -0.0395    0.0012 C   0  0  0  0  0  0  0  0  0  0  0  0
    0.9488    2.6951    0.1267 C   0  0  0  0  0  0  0  0  0  0  0  0
   -0.0156    0.4765    0.0178 C   0  0  0  0  0  0  0  0  0  0  0  0
    1.5204   -1.4560   -0.0496 C   0  0  0  0  0  0  0  0  0  0  0  0
   -0.1592    1.8965    0.0889 C   0  0  0  0  0  0  0  0  0  0  0  0
   -1.1045   -0.4414   -0.0178 C   0  0  0  0  0  0  0  0  0  0  0  0
    0.4359   -2.3217   -0.0684 C   0  0  0  0  0  0  0  0  0  0  0  0
    2.7498   -2.0203   -0.0773 O   0  0  0  0  0  0  0  0  0  0  0  0
   -0.8648   -1.8061   -0.0467 C   0  0  0  0  0  0  0  0  0  0  0  0
   -2.5292    0.0154   -0.0241 N   0  0  0  0  0  0  0  0  0  0  0  0
   -3.3179   -0.5195    0.7295 O   0  0  0  0  0  0  0  0  0  0  0  0
   -2.8843    0.8910   -0.7883 O   0  0  0  0  0  0  0  0  0  0  0  0
  1  2  2  0  0  0  0 
  1  3  1  0  0  0  0 
  2  4  1  0  0  0  0 
  5  3  1  0  0  0  0 
  6  3  2  0  0  0  0 
  4  7  2  0  0  0  0 
  7  5  1  0  0  0  0 
  5  8  2  0  0  0  0 
  9  6  1  0  0  0  0 
  6 10  1  0  0  0  0 
  8 11  1  0  0  0  0 
  8 12  1  0  0  0  0 
 11  9  2  0  0  0  0 
 12 13  2  0  0  0  0 
 12 14  1  0  0  0  0 
M  CHG  1  12   1
M  CHG  1  14  -1
M  END
> <Name>
8-Quinolinol, 5-nitro-

> <Source>
DougDB3DMolFile

> <Tox>
2.572

> <CAS>
4008-48-4

$$$$

  CDK

 11 11  0  0  0  0  0  0  0  0999 V2000
    1.0994    0.0528    0.4457 C   0  0  0  0  0  0  0  0  0  0  0  0
   -0.0001   -0.7796   -0.2273 C   0  0  0  0  0  0  0  0  0  0  0  0
    0.7489    1.5201    0.1742 C   0  0  0  0  0  0  0  0  0  0  0  0
    2.4799   -0.2769   -0.0778 C   0  0  0  0  0  0  0  0  0  0  0  0
   -1.1612    0.1792   -0.5325 C   0  0  0  0  0  0  0  0  0  0  0  0
   -0.7676    1.5496    0.0360 C   0  0  0  0  0  0  0  0  0  0  0  0
    2.8475   -0.5056   -1.2160 O   0  0  0  0  0  0  0  0  0  0  0  0
    3.4501   -0.3091    0.8658 O   0  0  0  0  0  0  0  0  0  0  0  0
   -2.4665   -0.2928    0.0716 C   0  0  0  0  0  0  0  0  0  0  0  0
   -2.6936   -0.7411    1.1809 O   0  0  0  0  0  0  0  0  0  0  0  0
   -3.5404   -0.1886   -0.7463 O   0  0  0  0  0  0  0  0  0  0  0  0
  1  2  1  0  0  0  0 
  1  3  1  0  0  0  0 
  1  4  1  0  0  0  0 
  2  5  1  0  0  0  0 
  6  3  1  0  0  0  0 
  4  7  2  0  0  0  0 
  4  8  1  0  0  0  0 
  5  6  1  0  0  0  0 
  5  9  1  0  0  0  0 
  9 10  2  0  0  0  0 
  9 11  1  0  0  0  0 
M  END
> <Name>
1,3-Cyclopentanedicarboxylic acid

> <Source>
DougDB3DMolFile

> <Tox>
1.687

> <CAS>
4056-78-4

$$$$

  CDK

 14 13  0  0  0  0  0  0  0  0999 V2000
    3.1465    0.3734    0.0039 C   0  0  0  0  0  0  0  0  0  0  0  0
    1.8722   -0.4397    0.0034 C   0  0  0  0  0  0  0  0  0  0  0  0
    3.2802    1.5788    0.0122 O   0  0  0  0  0  0  0  0  0  0  0  0
    4.2546   -0.4405   -0.0068 O   0  0  0  0  0  0  0  0  0  0  0  0
    0.6277    0.4325    0.0093 C   0  0  0  0  0  0  0  0  0  0  0  0
    5.5230    0.1194   -0.0076 C   0  0  0  0  0  0  0  0  0  0  0  0
   -0.6278   -0.4263    0.0060 C   0  0  0  0  0  0  0  0  0  0  0  0
    6.5442   -0.7375   -0.0185 C   0  0  0  0  0  0  0  0  0  0  0  0
   -1.8734    0.4445    0.0124 C   0  0  0  0  0  0  0  0  0  0  0  0
   -3.1459   -0.3714    0.0076 C   0  0  0  0  0  0  0  0  0  0  0  0
   -3.2757   -1.5773    0.0137 O   0  0  0  0  0  0  0  0  0  0  0  0
   -4.2563    0.4392   -0.0049 O   0  0  0  0  0  0  0  0  0  0  0  0
   -5.5231   -0.1244   -0.0090 C   0  0  0  0  0  0  0  0  0  0  0  0
   -6.5467    0.7295   -0.0233 C   0  0  0  0  0  0  0  0  0  0  0  0
  1  2  1  0  0  0  0 
  1  3  2  0  0  0  0 
  1  4  1  0  0  0  0 
  2  5  1  0  0  0  0 
  4  6  1  0  0  0  0 
  5  7  1  0  0  0  0 
  6  8  2  0  0  0  0 
  7  9  1  0  0  0  0 
  9 10  1  0  0  0  0 
 10 11  2  0  0  0  0 
 10 12  1  0  0  0  0 
 12 13  1  0  0  0  0 
 13 14  2  0  0  0  0 
M  END
> <Name>
Hexanedioic acid, diethenyl ester (9CI)

> <Source>
DougDB3DMolFile

> <Tox>
1.491

> <CAS>
4074-90-2

$$$$

  CDK

 18 18  0  0  0  0  0  0  0  0999 V2000
   -1.1020   -3.0926    0.0000 N   0  0  0  0  0  0  0  0  0  0  0  0
   -1.1020   -2.2676    0.0000 C   0  0  0  0  0  0  0  0  0  0  0  0
   -1.1020   -1.4426    0.0000 C   0  0  0  0  0  0  0  0  0  0  0  0
   -0.3875   -1.0301    0.0000 C   0  0  0  0  0  0  0  0  0  0  0  0
   -1.8165   -1.0301    0.0000 C   0  0  0  0  0  0  0  0  0  0  0  0
   -0.3875   -0.2051    0.0000 C   0  0  0  0  0  0  0  0  0  0  0  0
   -1.8165   -0.2051    0.0000 C   0  0  0  0  0  0  0  0  0  0  0  0
    0.4375   -0.2051    0.0000 O   0  0  0  0  0  0  0  0  0  0  0  0
   -1.1020    0.2074    0.0000 C   0  0  0  0  0  0  0  0  0  0  0  0
    0.8500   -0.9195    0.0000 C   0  0  0  0  0  0  0  0  0  0  0  0
   -1.1020    1.0324    0.0000 O   0  0  0  0  0  0  0  0  0  0  0  0
   -0.3875    1.4449    0.0000 P   0  0  0  0  0  0  0  0  0  0  0  0
   -0.8000    2.1594    0.0000 S   0  0  0  0  0  0  0  0  0  0  0  0
    0.3269    1.8574    0.0000 O   0  0  0  0  0  0  0  0  0  0  0  0
    0.0250    0.7305    0.0000 C   0  0  0  0  0  0  0  0  0  0  0  0
    1.0414    1.4449    0.0000 C   0  0  0  0  0  0  0  0  0  0  0  0
    0.7394    0.3180    0.0000 Cl  0  0  0  0  0  0  0  0  0  0  0  0
    1.7559    1.0324    0.0000 C   0  0  0  0  0  0  0  0  0  0  0  0
  1  2  3  0  0  0  0 
  2  3  1  0  0  0  0 
  3  4  1  0  0  0  0 
  3  5  2  0  0  0  0 
  4  6  2  0  0  0  0 
  7  5  1  0  0  0  0 
  6  8  1  0  0  0  0 
  6  9  1  0  0  0  0 
  9  7  2  0  0  0  0 
  8 10  1  0  0  0  0 
  9 11  1  0  0  0  0 
 11 12  1  0  0  0  0 
 12 13  2  0  0  0  0 
 12 14  1  0  0  0  0 
 12 15  1  0  0  0  0 
 14 16  1  0  0  0  0 
 15 17  1  0  0  0  0 
 16 18  1  0  0  0  0 
M  END
> <Name>
Phosphonothioic acid, (chloromethyl)-, O-ethyl ester, O-ester with 4-hydroxy-m-anisonitrile

> <Source>
Smiles

> <Tox>
3.634

> <CAS>
4081-32-7

$$$$

  CDK

 10  9  0  0  0  0  0  0  0  0999 V2000
    2.8658   -0.2458    0.0000 Cl  0  0  0  0  0  0  0  0  0  0  0  0
    2.0408   -0.2458    0.0000 C   0  0  0  0  0  0  0  0  0  0  0  0
    2.0408   -1.0708    0.0000 Cl  0  0  0  0  0  0  0  0  0  0  0  0
    1.2158   -0.2458    0.0000 C   0  0  0  0  0  0  0  0  0  0  0  0
    1.2158   -1.0708    0.0000 Cl  0  0  0  0  0  0  0  0  0  0  0  0
    0.3908   -0.2458    0.0000 S   0  0  0  0  0  0  0  0  0  0  0  0
   -0.0217    0.4687    0.0000 S   0  0  0  0  0  0  0  0  0  0  0  0
   -0.8467    0.4687    0.0000 C   0  0  0  0  0  0  0  0  0  0  0  0
   -0.8467   -0.3563    0.0000 C   0  0  0  0  0  0  0  0  0  0  0  0
   -1.6717    0.4687    0.0000 C   0  0  0  0  0  0  0  0  0  0  0  0
  1  2  1  0  0  0  0 
  2  3  1  0  0  0  0 
  2  4  1  0  0  0  0 
  4  5  1  0  0  0  0 
  4  6  1  0  0  0  0 
  6  7  1  0  0  0  0 
  7  8  1  0  0  0  0 
  8  9  1  0  0  0  0 
  8 10  1  0  0  0  0 
M  END
> <Name>
Disulfide, isopropyl 1,2,2-trichloroethyl

> <Source>
Smiles

> <Tox>
3.078

> <CAS>
4095-32-3

$$$$

  CDK

 29 34  0  0  0  0  0  0  0  0999 V2000
    5.1102    3.1563    0.0000 C   0  0  0  0  0  0  0  0  0  0  0  0
    6.2123    3.3066    0.0000 C   0  0  0  0  0  0  0  0  0  0  0  0
    4.6092    3.8577    0.0000 C   0  0  0  0  0  0  0  0  0  0  0  0
    4.6092    2.3046    0.0000 As  0  0  0  0  0  0  0  0  0  0  0  0
    6.7133    4.2084    0.0000 C   0  0  0  0  0  0  0  0  0  0  0  0
    6.7133    2.6052    0.0000 N   0  0  0  0  0  0  0  0  0  0  0  0
    5.1102    4.7595    0.0000 C   0  0  0  0  0  0  0  0  0  0  0  0
    5.1102    1.5531    0.0000 C   0  0  0  0  0  0  0  0  0  0  0  0
    3.5070    2.1042    0.0000 O   0  0  0  0  0  0  0  0  0  0  0  0
    6.2123    4.9098    0.0000 C   0  0  0  0  0  0  0  0  0  0  0  0
    6.2123    1.7535    0.0000 C   0  0  0  0  0  0  0  0  0  0  0  0
    4.6092    0.7014    0.0000 C   0  0  0  0  0  0  0  0  0  0  0  0
    2.9559    2.8557    0.0000 As  0  0  0  0  0  0  0  0  0  0  0  0
    6.7133    1.0020    0.0000 C   0  0  0  0  0  0  0  0  0  0  0  0
    5.1102    0.0000    0.0000 C   0  0  0  0  0  0  0  0  0  0  0  0
    3.4068    3.8076    0.0000 C   0  0  0  0  0  0  0  0  0  0  0  0
    2.0040    2.5551    0.0000 C   0  0  0  0  0  0  0  0  0  0  0  0
    6.2123    0.1503    0.0000 C   0  0  0  0  0  0  0  0  0  0  0  0
    2.9058    4.5090    0.0000 C   0  0  0  0  0  0  0  0  0  0  0  0
    4.4088    4.1082    0.0000 C   0  0  0  0  0  0  0  0  0  0  0  0
    1.4529    3.2565    0.0000 C   0  0  0  0  0  0  0  0  0  0  0  0
    1.5531    1.5531    0.0000 C   0  0  0  0  0  0  0  0  0  0  0  0
    3.3567    5.5110    0.0000 C   0  0  0  0  0  0  0  0  0  0  0  0
    1.9038    4.2585    0.0000 N   0  0  0  0  0  0  0  0  0  0  0  0
    4.8597    5.0601    0.0000 C   0  0  0  0  0  0  0  0  0  0  0  0
    0.4509    3.0060    0.0000 C   0  0  0  0  0  0  0  0  0  0  0  0
    0.5511    1.3026    0.0000 C   0  0  0  0  0  0  0  0  0  0  0  0
    4.3086    5.8116    0.0000 C   0  0  0  0  0  0  0  0  0  0  0  0
    0.0000    2.0040    0.0000 C   0  0  0  0  0  0  0  0  0  0  0  0
  1  2  2  0  0  0  0 
  1  3  1  0  0  0  0 
  4  1  1  0  0  0  0 
  5  2  1  0  0  0  0 
  2  6  1  0  0  0  0 
  3  7  2  0  0  0  0 
  8  4  1  0  0  0  0 
  4  9  1  0  0  0  0 
 10  5  2  0  0  0  0 
  6 11  1  0  0  0  0 
  7 10  1  0  0  0  0 
  8 11  2  0  0  0  0 
 12  8  1  0  0  0  0 
 13  9  1  0  0  0  0 
 11 14  1  0  0  0  0 
 15 12  2  0  0  0  0 
 16 13  1  0  0  0  0 
 13 17  1  0  0  0  0 
 14 18  2  0  0  0  0 
 18 15  1  0  0  0  0 
 19 16  2  0  0  0  0 
 20 16  1  0  0  0  0 
 17 21  2  0  0  0  0 
 17 22  1  0  0  0  0 
 19 23  1  0  0  0  0 
 24 19  1  0  0  0  0 
 25 20  2  0  0  0  0 
 21 24  1  0  0  0  0 
 26 21  1  0  0  0  0 
 22 27  2  0  0  0  0 
 23 28  2  0  0  0  0 
 28 25  1  0  0  0  0 
 29 26  2  0  0  0  0 
 27 29  1  0  0  0  0 
M  END
> <Name>
Phenarsazine, 10,10'-oxydi-

> <Source>
NIST2DMolFile

> <Tox>
3.780

> <CAS>
4095-45-8

$$$$

  CDK

  9  8  0  0  0  0  0  0  0  0999 V2000
    0.0000    1.3992    0.0000 C   0  0  0  0  0  0  0  0  0  0  0  0
    1.2127    2.0988    0.0000 C   0  0  0  0  0  0  0  0  0  0  0  0
    2.4253    1.3992    0.0000 C   0  0  0  0  0  0  0  0  0  0  0  0
    1.2127    3.4981    0.0000 O   0  0  0  0  0  0  0  0  0  0  0  0
    3.6380    2.0988    0.0000 C   0  0  0  0  0  0  0  0  0  0  0  0
    2.4253    0.0000    0.0000 Cl  0  0  0  0  0  0  0  0  0  0  0  0
    4.8506    1.3992    0.0000 N   0  0  0  0  0  0  0  0  0  0  0  0
    3.6380    3.4981    0.0000 O   0  0  0  0  0  0  0  0  0  0  0  0
    6.0633    2.0988    0.0000 C   0  0  0  0  0  0  0  0  0  0  0  0
  1  2  1  0  0  0  0 
  2  3  1  0  0  0  0 
  2  4  2  0  0  0  0 
  3  5  1  0  0  0  0 
  3  6  1  0  0  0  0 
  5  7  1  0  0  0  0 
  5  8  2  0  0  0  0 
  7  9  1  0  0  0  0 
M  END
> <Name>
Butanamide, 2-chloro-N-methyl-3-oxo-

> <Source>
IndexNet2DMolFile

> <Tox>
2.330

> <CAS>
4116-10-3

$$$$

  CDK

 13 12  0  0  0  0  0  0  0  0999 V2000
   -1.7061    0.0053    0.7256 C   0  0  0  0  0  0  0  0  0  0  0  0
   -2.8391   -0.0033   -0.2927 C   0  0  0  0  0  0  0  0  0  0  0  0
   -1.7704    0.0112    1.9373 O   0  0  0  0  0  0  0  0  0  0  0  0
   -0.4702    0.0051    0.1353 O   0  0  0  0  0  0  0  0  0  0  0  0
   -3.7009    1.2496   -0.1172 C   0  0  0  0  0  0  0  0  0  0  0  0
   -3.6837   -1.2674   -0.1138 C   0  0  0  0  0  0  0  0  0  0  0  0
    0.6803    0.0113    0.9728 C   0  0  0  0  0  0  0  0  0  0  0  0
   -2.9757    2.5092   -0.5348 C   0  0  0  0  0  0  0  0  0  0  0  0
   -2.9423   -2.5179   -0.5300 C   0  0  0  0  0  0  0  0  0  0  0  0
    1.8861    0.0026    0.0452 C   0  0  0  0  0  0  0  0  0  0  0  0
    3.3578    0.0126    1.0151 Cl  0  0  0  0  0  0  0  0  0  0  0  0
    1.9113    1.4158   -0.9942 Cl  0  0  0  0  0  0  0  0  0  0  0  0
    1.9122   -1.4311   -0.9660 Cl  0  0  0  0  0  0  0  0  0  0  0  0
  1  2  1  0  0  0  0 
  1  3  2  0  0  0  0 
  1  4  1  0  0  0  0 
  2  5  1  0  0  0  0 
  2  6  1  0  0  0  0 
  4  7  1  0  0  0  0 
  5  8  1  0  0  0  0 
  6  9  1  0  0  0  0 
  7 10  1  0  0  0  0 
 10 11  1  0  0  0  0 
 10 12  1  0  0  0  0 
 10 13  1  0  0  0  0 
M  END
> <Name>
Butyric acid, 2-ethyl-, 2,2,2-trichloroethyl ester

> <Source>
DougDB3DMolFile

> <Tox>
2.439

> <CAS>
4189-10-0

$$$$

  CDK

 15 16  0  0  0  0  0  0  0  0999 V2000
    2.4487    0.7033    0.0000 N   0  0  0  0  0  0  0  0  0  0  0  0
    1.6391    1.2914    0.0000 C   0  0  0  0  0  0  0  0  0  0  0  0
    3.2584    1.2914    0.0000 C   0  0  0  0  0  0  0  0  0  0  0  0
    0.6680    1.0837    0.0000 C   0  0  0  0  0  0  0  0  0  0  0  0
    1.9496    2.2404    0.0000 C   0  0  0  0  0  0  0  0  0  0  0  0
    2.9501    2.2435    0.0000 N   0  0  0  0  0  0  0  0  0  0  0  0
    4.2119    0.9810    0.0000 C   0  0  0  0  0  0  0  0  0  0  0  0
    0.0000    1.8206    0.0000 C   0  0  0  0  0  0  0  0  0  0  0  0
    0.4018    0.1191    0.0000 Cl  0  0  0  0  0  0  0  0  0  0  0  0
    1.2837    2.9813    0.0000 C   0  0  0  0  0  0  0  0  0  0  0  0
    4.4198    0.0000    0.0000 F   0  0  0  0  0  0  0  0  0  0  0  0
    4.9575    1.6515    0.0000 F   0  0  0  0  0  0  0  0  0  0  0  0
    3.6653    0.1403    0.0000 F   0  0  0  0  0  0  0  0  0  0  0  0
    0.3072    2.7747    0.0000 C   0  0  0  0  0  0  0  0  0  0  0  0
    1.5945    3.9346    0.0000 Cl  0  0  0  0  0  0  0  0  0  0  0  0
  1  2  1  0  0  0  0 
  3  1  1  0  0  0  0 
  2  4  1  0  0  0  0 
  2  5  2  0  0  0  0 
  6  3  2  0  0  0  0 
  3  7  1  0  0  0  0 
  4  8  2  0  0  0  0 
  4  9  1  0  0  0  0 
 10  5  1  0  0  0  0 
  5  6  1  0  0  0  0 
  7 11  1  0  0  0  0 
  7 12  1  0  0  0  0 
  7 13  1  0  0  0  0 
  8 14  1  0  0  0  0 
 10 15  1  0  0  0  0 
 14 10  2  0  0  0  0 
M  END
> <Name>
Benzimidazole, 4,7-dichloro-2-(trifluoromethyl)-

> <Source>
NIST2DMolFile

> <Tox>
4.990

> <CAS>
4228-89-1

$$$$

  CDK

 17 18  0  0  0  0  0  0  0  0999 V2000
   -1.5060   -0.3372    2.4595 Cl  0  0  0  0  0  0  0  0  0  0  0  0
    0.1486   -0.5928    2.0629 C   0  0  0  0  0  0  0  0  0  0  0  0
    1.0472   -1.0509    3.0269 C   0  0  0  0  0  0  0  0  0  0  0  0
    0.6634   -0.3580    0.7837 C   0  0  0  0  0  0  0  0  0  0  0  0
    0.8939   -1.3767    4.3501 N   0  0  0  0  0  0  0  0  0  0  0  0
    2.3966   -1.2756    2.7693 C   0  0  0  0  0  0  0  0  0  0  0  0
    2.0128   -0.5742    0.4946 C   0  0  0  0  0  0  0  0  0  0  0  0
   -0.2618    0.1363   -0.2903 C   0  0  0  0  0  0  0  0  0  0  0  0
    2.1127   -1.7723    4.8265 C   0  0  0  0  0  0  0  0  0  0  0  0
    3.0425   -1.7232    3.8988 N   0  0  0  0  0  0  0  0  0  0  0  0
    2.8968   -1.0344    1.4786 C   0  0  0  0  0  0  0  0  0  0  0  0
    2.6055   -0.2664   -1.1088 Cl  0  0  0  0  0  0  0  0  0  0  0  0
    2.2871   -2.1925    6.2294 C   0  0  0  0  0  0  0  0  0  0  0  0
    4.5634   -1.3401    1.2668 Cl  0  0  0  0  0  0  0  0  0  0  0  0
    3.5696   -2.5546    6.5285 F   0  0  0  0  0  0  0  0  0  0  0  0
    1.9639   -1.2179    7.1299 F   0  0  0  0  0  0  0  0  0  0  0  0
    1.5093   -3.2684    6.5449 F   0  0  0  0  0  0  0  0  0  0  0  0
  1  2  1  0  0  0  0 
  3  2  1  0  0  0  0 
  2  4  2  0  0  0  0 
  5  3  1  0  0  0  0 
  3  6  2  0  0  0  0 
  4  7  1  0  0  0  0 
  4  8  1  0  0  0  0 
  5  9  1  0  0  0  0 
 10  6  1  0  0  0  0 
  6 11  1  0  0  0  0 
 12  7  1  0  0  0  0 
 11  7  2  0  0  0  0 
 10  9  2  0  0  0  0 
  9 13  1  0  0  0  0 
 14 11  1  0  0  0  0 
 15 13  1  0  0  0  0 
 16 13  1  0  0  0  0 
 17 13  1  0  0  0  0 
M  END
> <Name>
Benzimidazole, 4,5,7-trichloro-6-methyl-2-(trifluoromethyl)-

> <Source>
Chemidplus3DMolFile

> <Tox>
4.220

> <CAS>
4228-99-3

$$$$

  CDK

  8  7  0  0  0  0  0  0  0  0999 V2000
    1.7075   -1.7559   -0.7688 C   0  0  0  0  0  0  0  0  0  0  0  0
    1.4174   -1.1889    0.6092 C   0  0  0  0  0  0  0  0  0  0  0  0
    0.6282    0.0782    0.6035 N   0  0  0  0  0  0  0  0  0  0  0  0
    1.3166    1.1805   -0.1379 C   0  0  0  0  0  0  0  0  0  0  0  0
   -0.7085   -0.1119    0.2573 C   0  0  0  0  0  0  0  0  0  0  0  0
    0.4885    2.4424   -0.2396 C   0  0  0  0  0  0  0  0  0  0  0  0
   -1.8758   -0.2615    0.0523 C   0  0  0  0  0  0  0  0  0  0  0  0
   -3.2742   -0.4376   -0.1951 C   0  0  0  0  0  0  0  0  0  0  0  0
  1  2  1  0  0  0  0 
  2  3  1  0  0  0  0 
  3  4  1  0  0  0  0 
  3  5  1  0  0  0  0 
  4  6  1  0  0  0  0 
  5  7  3  0  0  0  0 
  7  8  1  0  0  0  0 
M  END
> <Name>
1-Propyn-1-amine, N,N-diethyl- (9CI)

> <Source>
DougDB3DMolFile

> <Tox>
2.203

> <CAS>
4231-35-0

$$$$

  CDK

 26 28  0  0  0  0  0  0  0  0999 V2000
    1.7201    0.4048    4.9467 P   0  0  0  0  0  0  0  0  0  0  0  0
    1.8316   -0.9373    4.0441 O   0  0  0  0  0  0  0  0  0  0  0  0
    1.8583   -0.1538    6.4578 O   0  0  0  0  0  0  0  0  0  0  0  0
    3.1437    1.1287    4.6951 O   0  0  0  0  0  0  0  0  0  0  0  0
    0.5094    1.2558    4.6830 O   0  0  0  0  0  0  0  0  0  0  0  0
    1.8988   -0.9658    2.6851 C   0  0  0  0  0  0  0  0  0  0  0  0
    0.9452   -0.9582    7.0838 C   0  0  0  0  0  0  0  0  0  0  0  0
    3.5795    2.2510    5.3458 C   0  0  0  0  0  0  0  0  0  0  0  0
    1.8737    0.2257    1.9603 C   0  0  0  0  0  0  0  0  0  0  0  0
    1.9927   -2.1866    2.0170 C   0  0  0  0  0  0  0  0  0  0  0  0
   -0.2056   -1.3514    6.4084 C   0  0  0  0  0  0  0  0  0  0  0  0
    1.1753   -1.3758    8.3906 C   0  0  0  0  0  0  0  0  0  0  0  0
    2.7702    2.8502    6.3055 C   0  0  0  0  0  0  0  0  0  0  0  0
    4.8282    2.7834    5.0419 C   0  0  0  0  0  0  0  0  0  0  0  0
    1.9423    0.1965    0.5674 C   0  0  0  0  0  0  0  0  0  0  0  0
    2.0614   -2.2159    0.6241 C   0  0  0  0  0  0  0  0  0  0  0  0
   -1.1365   -2.1711    7.0467 C   0  0  0  0  0  0  0  0  0  0  0  0
    0.2445   -2.1956    9.0289 C   0  0  0  0  0  0  0  0  0  0  0  0
    3.2144    3.9943    6.9686 C   0  0  0  0  0  0  0  0  0  0  0  0
    5.2725    3.9274    5.7049 C   0  0  0  0  0  0  0  0  0  0  0  0
    2.0362   -1.0243   -0.1006 C   0  0  0  0  0  0  0  0  0  0  0  0
   -0.9114   -2.5931    8.3569 C   0  0  0  0  0  0  0  0  0  0  0  0
    4.4655    4.5328    6.6682 C   0  0  0  0  0  0  0  0  0  0  0  0
    2.1060   -1.0534   -1.5090 N   0  0  0  0  0  0  0  0  0  0  0  0
   -1.8525   -3.4223    9.0017 N   0  0  0  0  0  0  0  0  0  0  0  0
    4.9144    5.6893    7.3392 N   0  0  0  0  0  0  0  0  0  0  0  0
  1  2  1  0  0  0  0 
  1  3  1  0  0  0  0 
  1  4  1  0  0  0  0 
  1  5  2  0  0  0  0 
  2  6  1  0  0  0  0 
  3  7  1  0  0  0  0 
  4  8  1  0  0  0  0 
  6  9  2  0  0  0  0 
  6 10  1  0  0  0  0 
  7 11  2  0  0  0  0 
  7 12  1  0  0  0  0 
  8 13  2  0  0  0  0 
  8 14  1  0  0  0  0 
  9 15  1  0  0  0  0 
 10 16  2  0  0  0  0 
 11 17  1  0  0  0  0 
 12 18  2  0  0  0  0 
 13 19  1  0  0  0  0 
 14 20  2  0  0  0  0 
 21 15  2  0  0  0  0 
 21 16  1  0  0  0  0 
 22 17  2  0  0  0  0 
 22 18  1  0  0  0  0 
 23 19  2  0  0  0  0 
 23 20  1  0  0  0  0 
 24 21  1  0  0  0  0 
 25 22  1  0  0  0  0 
 26 23  1  0  0  0  0 
M  END
> <Name>
Phenol, p-amino-, phosphate (3:1) (ester)

> <Source>
Chemidplus3DMolFile

> <Tox>
3.430

> <CAS>
4232-84-2

$$$$

  CDK

 12 11  0  0  0  0  0  0  0  0999 V2000
    2.5242    0.3136    0.0000 O   0  0  0  0  0  0  0  0  0  0  0  0
    2.5242   -0.5114    0.0000 C   0  0  0  0  0  0  0  0  0  0  0  0
    1.8098   -0.9239    0.0000 O   0  0  0  0  0  0  0  0  0  0  0  0
    3.2387   -0.9239    0.0000 N   0  0  0  0  0  0  0  0  0  0  0  0
    1.0953   -0.5114    0.0000 C   0  0  0  0  0  0  0  0  0  0  0  0
    0.3808   -0.0989    0.0000 C   0  0  0  0  0  0  0  0  0  0  0  0
   -0.0317   -0.8133    0.0000 C   0  0  0  0  0  0  0  0  0  0  0  0
   -0.3336    0.3136    0.0000 C   0  0  0  0  0  0  0  0  0  0  0  0
   -0.4442   -1.5278    0.0000 C   0  0  0  0  0  0  0  0  0  0  0  0
   -1.0481    0.7261    0.0000 C   0  0  0  0  0  0  0  0  0  0  0  0
   -1.7626    1.1386    0.0000 C   0  0  0  0  0  0  0  0  0  0  0  0
   -2.4771    1.5511    0.0000 C   0  0  0  0  0  0  0  0  0  0  0  0
  1  2  2  0  0  0  0 
  2  3  1  0  0  0  0 
  2  4  1  0  0  0  0 
  3  5  1  0  0  0  0 
  5  6  1  0  0  0  0 
  6  7  1  0  0  0  0 
  6  8  1  0  0  0  0 
  7  9  1  0  0  0  0 
  8 10  1  0  0  0  0 
 10 11  1  0  0  0  0 
 11 12  1  0  0  0  0 
M  END
> <Name>
Carbamic acid, 2-ethylhexyl ester

> <Source>
Smiles

> <Tox>
1.740

> <CAS>
4248-21-9

$$$$

  CDK

 14 14  0  0  0  0  0  0  0  0999 V2000
    0.6484   -0.5989   -0.1727 C   0  0  0  0  0  0  0  0  0  0  0  0
   -0.6475   -0.6034    0.1752 C   0  0  0  0  0  0  0  0  0  0  0  0
    1.4368   -1.8509   -0.3780 C   0  0  0  0  0  0  0  0  0  0  0  0
    1.4189    0.6634   -0.3873 C   0  0  0  0  0  0  0  0  0  0  0  0
   -1.4287   -1.8609    0.3751 C   0  0  0  0  0  0  0  0  0  0  0  0
   -1.4259    0.6537    0.3919 C   0  0  0  0  0  0  0  0  0  0  0  0
    0.5549   -3.0798   -0.5289 C   0  0  0  0  0  0  0  0  0  0  0  0
    1.3474    1.4202   -1.3339 O   0  0  0  0  0  0  0  0  0  0  0  0
    2.3032    0.9187    0.6226 O   0  0  0  0  0  0  0  0  0  0  0  0
   -0.5391   -3.0846    0.5231 C   0  0  0  0  0  0  0  0  0  0  0  0
   -1.3679    1.4037    1.3449 O   0  0  0  0  0  0  0  0  0  0  0  0
   -2.3001    0.9129   -0.6258 O   0  0  0  0  0  0  0  0  0  0  0  0
    3.0815    2.0950    0.5562 C   0  0  0  0  0  0  0  0  0  0  0  0
   -3.0807    2.0877   -0.5616 C   0  0  0  0  0  0  0  0  0  0  0  0
  1  2  2  0  0  0  0 
  1  3  1  0  0  0  0 
  1  4  1  0  0  0  0 
  2  5  1  0  0  0  0 
  2  6  1  0  0  0  0 
  7  3  1  0  0  0  0 
  4  8  2  0  0  0  0 
  4  9  1  0  0  0  0 
  5 10  1  0  0  0  0 
  6 11  2  0  0  0  0 
  6 12  1  0  0  0  0 
 10  7  1  0  0  0  0 
  9 13  1  0  0  0  0 
 12 14  1  0  0  0  0 
M  END
> <Name>
1-Cyclohexene-1,2-dicarboxylic acid, dimethyl ester

> <Source>
DougDB3DMolFile

> <Tox>
2.452

> <CAS>
4336-19-0

$$$$

  CDK

 13 13  0  0  0  0  0  0  0  0999 V2000
    2.2359    3.0048    0.0000 N   0  0  0  0  0  0  0  0  0  0  0  0
    1.2855    3.3108    0.0000 C   0  0  0  0  0  0  0  0  0  0  0  0
    2.2359    2.0048    0.0000 C   0  0  0  0  0  0  0  0  0  0  0  0
    0.6955    2.5048    0.0000 N   0  0  0  0  0  0  0  0  0  0  0  0
    1.2855    1.6936    0.0000 C   0  0  0  0  0  0  0  0  0  0  0  0
    3.0455    1.4180    0.0000 N   0  0  0  0  0  0  0  0  0  0  0  0
    0.9778    0.7421    0.0000 C   0  0  0  0  0  0  0  0  0  0  0  0
    3.9585    1.8258    0.0000 N   0  0  0  0  0  0  0  0  0  0  0  0
    1.6479    0.0000    0.0000 N   0  0  0  0  0  0  0  0  0  0  0  0
    0.0000    0.5328    0.0000 O   0  0  0  0  0  0  0  0  0  0  0  0
    4.7682    1.2389    0.0000 N   0  0  0  0  0  0  0  0  0  0  0  0
    5.6812    1.6467    0.0000 C   0  0  0  0  0  0  0  0  0  0  0  0
    4.6648    0.2443    0.0000 C   0  0  0  0  0  0  0  0  0  0  0  0
  1  2  1  0  0  0  0 
  3  1  1  0  0  0  0 
  2  4  2  0  0  0  0 
  5  3  2  0  0  0  0 
  3  6  1  0  0  0  0 
  4  5  1  0  0  0  0 
  5  7  1  0  0  0  0 
  6  8  2  0  0  0  0 
  7  9  1  0  0  0  0 
  7 10  2  0  0  0  0 
  8 11  1  0  0  0  0 
 11 12  1  0  0  0  0 
 11 13  1  0  0  0  0 
M  END
> <Name>
1H-Imidazole-4-carboxamide, 5-(3,3-dimethyl-1-triazenyl)-

> <Source>
NIST2DMolFile

> <Tox>
1.929

> <CAS>
4342-03-4

$$$$

  CDK

 16 17  0  0  0  0  0  0  0  0999 V2000
    4.7598   -2.3964    0.0000 C   0  0  0  0  0  0  0  0  0  0  0  0
    3.5038   -1.9833    0.0000 C   0  0  0  0  0  0  0  0  0  0  0  0
    5.5118   -1.3304    0.0000 C   0  0  0  0  0  0  0  0  0  0  0  0
    5.2060   -3.6690    0.0000 C   0  0  0  0  0  0  0  0  0  0  0  0
    3.5038   -0.6528    0.0000 C   0  0  0  0  0  0  0  0  0  0  0  0
    2.3386   -2.6609    0.0000 C   0  0  0  0  0  0  0  0  0  0  0  0
    4.7598   -0.2562    0.0000 N   0  0  0  0  0  0  0  0  0  0  0  0
    6.5034   -3.9335    0.0000 C   0  0  0  0  0  0  0  0  0  0  0  0
    2.3386   -0.0000    0.0000 C   0  0  0  0  0  0  0  0  0  0  0  0
    1.1817   -1.9833    0.0000 C   0  0  0  0  0  0  0  0  0  0  0  0
    6.9497   -5.1730    0.0000 C   0  0  0  0  0  0  0  0  0  0  0  0
    7.3628   -2.9170    0.0000 N   0  0  0  0  0  0  0  0  0  0  0  0
    1.1817   -0.6528    0.0000 C   0  0  0  0  0  0  0  0  0  0  0  0
    0.0000   -2.6774    0.0000 O   0  0  0  0  0  0  0  0  0  0  0  0
    8.2636   -5.4126    0.0000 O   0  0  0  0  0  0  0  0  0  0  0  0
    6.1068   -6.1811    0.0000 O   0  0  0  0  0  0  0  0  0  0  0  0
  1  2  1  0  0  0  0 
  1  3  2  0  0  0  0 
  1  4  1  0  0  0  0 
  2  5  2  0  0  0  0 
  2  6  1  0  0  0  0 
  7  3  1  0  0  0  0 
  4  8  1  0  0  0  0 
  7  5  1  0  0  0  0 
  5  9  1  0  0  0  0 
  6 10  2  0  0  0  0 
 11  8  1  0  0  0  0 
  8 12  1  6  0  0  0 
  9 13  2  0  0  0  0 
 10 13  1  0  0  0  0 
 10 14  1  0  0  0  0 
 11 15  2  0  0  0  0 
 11 16  1  0  0  0  0 
M  END
> <Name>
Tryptophan, 5-hydroxy-, L-

> <Source>
DSSTox2DMolFile

> <Tox>
2.957

> <CAS>
4350-09-8

$$$$

  CDK

 10 10  0  0  0  0  0  0  0  0999 V2000
   -1.0107    1.3456   -0.7051 O   0  0  0  0  0  0  0  0  0  0  0  0
   -0.4094    0.0789   -0.8762 C   0  0  0  0  0  0  0  0  0  0  0  0
   -2.1016    1.2337    0.2042 C   0  0  0  0  0  0  0  0  0  0  0  0
   -1.3620   -0.8884   -0.4918 O   0  0  0  0  0  0  0  0  0  0  0  0
    0.8909   -0.0542   -0.0520 C   0  0  0  0  0  0  0  0  0  0  0  0
   -2.3913   -0.2721    0.3042 C   0  0  0  0  0  0  0  0  0  0  0  0
    2.0464    1.1616   -0.5653 Cl  0  0  0  0  0  0  0  0  0  0  0  0
    1.6017   -1.6361   -0.3141 Cl  0  0  0  0  0  0  0  0  0  0  0  0
    0.6069    0.1451    1.6670 Cl  0  0  0  0  0  0  0  0  0  0  0  0
   -3.7518   -0.6650   -0.2414 C   0  0  0  0  0  0  0  0  0  0  0  0
  1  2  1  0  0  0  0 
  1  3  1  0  0  0  0 
  2  4  1  0  0  0  0 
  2  5  1  0  0  0  0 
  6  3  1  0  0  0  0 
  4  6  1  0  0  0  0 
  5  7  1  0  0  0  0 
  5  8  1  0  0  0  0 
  5  9  1  0  0  0  0 
  6 10  1  0  0  0  0 
M  END
> <Name>
1,3-Dioxolane, 4-methyl-2-(trichloromethyl)-

> <Source>
DougDB3DMolFile

> <Tox>
2.733

> <CAS>
4353-02-0

$$$$

  CDK

 24 29  0  0  0  0  0  0  0  0999 V2000
    0.0000    0.0000    0.0000 C   0  0  0  0  0  0  0  0  0  0  0  0
    0.0000    0.9108    0.0000 C   0  0  0  0  0  0  0  0  0  0  0  0
    0.7806    1.3010    0.0000 C   0  0  0  0  0  0  0  0  0  0  0  0
    0.7806    2.1685    0.0000 C   0  0  0  0  0  0  0  0  0  0  0  0
    1.5179    0.8675    0.0000 C   0  0  0  0  0  0  0  0  0  0  0  0
    1.5179    2.6022    0.0000 C   0  0  0  0  0  0  0  0  0  0  0  0
    2.9924    0.0000    0.0000 C   0  0  0  0  0  0  0  0  0  0  0  0
    2.2551    1.2577    0.0000 N   0  0  0  0  0  0  0  0  0  0  0  0
    1.5179    0.0434    0.0000 O   0  0  0  0  0  0  0  0  0  0  0  0
    3.0357    3.4694    0.0000 C   0  0  0  0  0  0  0  0  0  0  0  0
    2.2551    2.1685    0.0000 C   0  0  0  0  0  0  0  0  0  0  0  0
    2.9924    0.8240    0.0000 C   0  0  0  0  0  0  0  0  0  0  0  0
    3.5563    4.2936    0.0000 O   0  0  0  0  0  0  0  0  0  0  0  0
    3.7730    2.1251    0.0000 C   0  0  0  0  0  0  0  0  0  0  0  0
    3.0357    2.6022    0.0000 C   0  0  0  0  0  0  0  0  0  0  0  0
    3.7730    1.2577    0.0000 C   0  0  0  0  0  0  0  0  0  0  0  0
    4.6404    2.3853    0.0000 C   0  0  0  0  0  0  0  0  0  0  0  0
    4.5537    0.9542    0.0000 N   0  0  0  0  0  0  0  0  0  0  0  0
    5.1175    1.6481    0.0000 C   0  0  0  0  0  0  0  0  0  0  0  0
    4.9873    3.1659    0.0000 C   0  0  0  0  0  0  0  0  0  0  0  0
    4.8139    0.1736    0.0000 C   0  0  0  0  0  0  0  0  0  0  0  0
    5.9849    1.7347    0.0000 C   0  0  0  0  0  0  0  0  0  0  0  0
    5.8114    3.2526    0.0000 C   0  0  0  0  0  0  0  0  0  0  0  0
    6.3318    2.5153    0.0000 C   0  0  0  0  0  0  0  0  0  0  0  0
  2  1  1  0  0  0  0 
  3  2  1  0  0  0  0 
  3  4  1  0  0  0  0 
  5  3  1  0  0  0  0 
  4  6  1  0  0  0  0 
  7  4  1  0  0  0  0 
  8  5  1  0  0  0  0 
  5  9  1  6  0  0  0 
  6 10  1  0  0  0  0 
 11  6  1  0  0  0  0 
 12  7  1  0  0  0  0 
  8 11  1  0  0  0  0 
 12  8  1  0  0  0  0 
 10 13  1  6  0  0  0 
 10 14  1  0  0  0  0 
 11 15  1  0  0  0  0 
 16 12  1  0  0  0  0 
 14 16  1  0  0  0  0 
 14 17  1  0  0  0  0 
 15 14  1  0  0  0  0 
 18 16  1  0  0  0  0 
 17 19  2  0  0  0  0 
 17 20  1  0  0  0  0 
 19 18  1  0  0  0  0 
 18 21  1  0  0  0  0 
 22 19  1  0  0  0  0 
 20 23  2  0  0  0  0 
 24 22  2  0  0  0  0 
 23 24  1  0  0  0  0 
M  END
> <Name>
Ajmalan-17,21-diol, (17R,21alpha)-, compound with methanol (1:1)

> <Source>
NIST2DMolFile

> <Tox>
2.957

> <CAS>
4360-12-7

$$$$

  CDK

 15 14  0  0  0  0  0  0  0  0999 V2000
    2.4253    4.1510    0.0000 O   0  0  0  0  0  0  0  0  0  0  0  0
    2.4253    2.7518    0.0000 C   0  0  0  0  0  0  0  0  0  0  0  0
    1.2127    2.0522    0.0000 C   0  0  0  0  0  0  0  0  0  0  0  0
    3.6380    2.0522    0.0000 O   0  0  0  0  0  0  0  0  0  0  0  0
    0.0000    2.7518    0.0000 C   0  0  0  0  0  0  0  0  0  0  0  0
    4.8506    2.7518    0.0000 C   0  0  0  0  0  0  0  0  0  0  0  0
    6.0633    2.0522    0.0000 C   0  0  0  0  0  0  0  0  0  0  0  0
    7.2760    2.7518    0.0000 C   0  0  0  0  0  0  0  0  0  0  0  0
    8.4886    2.0522    0.0000 Si  0  0  0  0  0  0  0  0  0  0  0  0
    9.7013    2.7518    0.0000 O   0  0  0  0  0  0  0  0  0  0  0  0
    8.4886    0.6996    0.0000 O   0  0  0  0  0  0  0  0  0  0  0  0
    9.7013    1.3992    0.0000 O   0  0  0  0  0  0  0  0  0  0  0  0
   10.9139    2.0522    0.0000 C   0  0  0  0  0  0  0  0  0  0  0  0
    7.2760    0.0000    0.0000 C   0  0  0  0  0  0  0  0  0  0  0  0
    9.7013    0.0000    0.0000 C   0  0  0  0  0  0  0  0  0  0  0  0
  1  2  2  0  0  0  0 
  2  3  1  0  0  0  0 
  2  4  1  0  0  0  0 
  3  5  2  0  0  0  0 
  4  6  1  0  0  0  0 
  6  7  1  0  0  0  0 
  7  8  1  0  0  0  0 
  8  9  1  0  0  0  0 
  9 10  1  0  0  0  0 
  9 11  1  0  0  0  0 
  9 12  1  0  0  0  0 
 10 13  1  0  0  0  0 
 11 14  1  0  0  0  0 
 12 15  1  0  0  0  0 
M  END
> <Name>
2-Propenoic acid, 3-(trimethoxysilyl)propyl ester

> <Source>
IndexNet2DMolFile

> <Tox>
2.347

> <CAS>
4369-14-6

$$$$

  CDK

  8  8  0  0  0  0  0  0  0  0999 V2000
    1.5380    1.6918    0.0000 C   0  0  0  0  0  0  0  0  0  0  0  0
    0.5127    1.6918    0.0000 C   0  0  0  0  0  0  0  0  0  0  0  0
    2.0506    0.8202    0.0000 N   0  0  0  0  0  0  0  0  0  0  0  0
    0.0000    0.8202    0.0000 O   0  0  0  0  0  0  0  0  0  0  0  0
    1.5380    0.0000    0.0000 C   0  0  0  0  0  0  0  0  0  0  0  0
    3.0759    0.8202    0.0000 C   0  0  0  0  0  0  0  0  0  0  0  0
    0.5127    0.0000    0.0000 C   0  0  0  0  0  0  0  0  0  0  0  0
    3.5886    0.0000    0.0000 O   0  0  0  0  0  0  0  0  0  0  0  0
  1  2  1  0  0  0  0 
  3  1  1  0  0  0  0 
  2  4  1  0  0  0  0 
  5  3  1  0  0  0  0 
  3  6  1  0  0  0  0 
  4  7  1  0  0  0  0 
  7  5  1  0  0  0  0 
  6  8  2  0  0  0  0 
M  END
> <Name>
4-Morpholinecarboxaldehyde

> <Source>
NIST2DMolFile

> <Tox>
1.189

> <CAS>
4394-85-8

$$$$

  CDK

 19 21  0  0  0  0  0  0  0  0999 V2000
    0.0000    0.0000    0.0000 N   0  0  0  0  0  0  0  0  0  0  0  0
    0.7400    1.3600    0.4400 P   0  0  0  0  0  0  0  0  0  0  0  0
    0.4400   -1.1800    0.5400 C   0  0  0  0  0  0  0  0  0  0  0  0
    2.1800    1.2000    0.3400 O   0  0  0  0  0  0  0  0  0  0  0  0
    0.2600    2.5800   -0.5400 N   0  0  0  0  0  0  0  0  0  0  0  0
    0.3400    1.7200    1.9800 N   0  0  0  0  0  0  0  0  0  0  0  0
    1.3400   -1.2000    1.3200 O   0  0  0  0  0  0  0  0  0  0  0  0
   -0.2400   -2.4600    0.1400 C   0  0  0  0  0  0  0  0  0  0  0  0
    0.2800    2.4000   -1.9000 C   0  0  0  0  0  0  0  0  0  0  0  0
   -1.0400    2.6400   -0.9800 C   0  0  0  0  0  0  0  0  0  0  0  0
    0.9000    1.0400    3.0200 C   0  0  0  0  0  0  0  0  0  0  0  0
    1.0800    2.6200    2.7000 C   0  0  0  0  0  0  0  0  0  0  0  0
    0.1600   -3.7000    0.6600 C   0  0  0  0  0  0  0  0  0  0  0  0
   -1.3000   -2.3800   -0.8000 C   0  0  0  0  0  0  0  0  0  0  0  0
   -0.5000   -4.8800    0.2400 C   0  0  0  0  0  0  0  0  0  0  0  0
    1.7000   -3.8600    2.0200 I   0  0  0  0  0  0  0  0  0  0  0  0
   -1.9600   -3.5600   -1.2000 C   0  0  0  0  0  0  0  0  0  0  0  0
   -1.5600   -4.8000   -0.6800 C   0  0  0  0  0  0  0  0  0  0  0  0
   -3.5200   -3.4600   -2.5400 I   0  0  0  0  0  0  0  0  0  0  0  0
  1  2  1  0  0  0  0 
  1  3  1  0  0  0  0 
  2  4  2  0  0  0  0 
  2  5  1  0  0  0  0 
  2  6  1  0  0  0  0 
  3  7  2  0  0  0  0 
  3  8  1  0  0  0  0 
  5  9  1  0  0  0  0 
  5 10  1  0  0  0  0 
  6 11  1  0  0  0  0 
  6 12  1  0  0  0  0 
  8 13  2  0  0  0  0 
  8 14  1  0  0  0  0 
  9 10  1  0  0  0  0 
 11 12  1  0  0  0  0 
 13 15  1  0  0  0  0 
 13 16  1  0  0  0  0 
 17 14  2  0  0  0  0 
 15 18  2  0  0  0  0 
 18 17  1  0  0  0  0 
 17 19  1  0  0  0  0 
M  END
> <Name>
Benzamide, N-(bis(1-aziridinyl)phosphinyl)-2,5-diiodo-

> <Source>
NIH3DMolFile

> <Tox>
3.003

> <CAS>
4460-32-6

$$$$

  CDK

 26 27  0  0  0  0  0  0  0  0999 V2000
   -1.9734    1.2437    0.0000 C   0  0  0  0  0  0  0  0  0  0  0  0
   -2.6812    1.6591    0.0000 O   0  0  0  0  0  0  0  0  0  0  0  0
   -1.9734    0.4181    0.0000 C   0  0  0  0  0  0  0  0  0  0  0  0
   -1.2686    1.6608    0.0000 C   0  0  0  0  0  0  0  0  0  0  0  0
   -3.3974    1.2524    0.0000 C   0  0  0  0  0  0  0  0  0  0  0  0
   -2.6934    0.0047    0.0000 C   0  0  0  0  0  0  0  0  0  0  0  0
   -1.2486    0.0082    0.0000 C   0  0  0  0  0  0  0  0  0  0  0  0
   -0.5574    1.2585    0.0000 C   0  0  0  0  0  0  0  0  0  0  0  0
   -4.0732    1.7158    0.0000 O   0  0  0  0  0  0  0  0  0  0  0  0
   -3.4050    0.4295    0.0000 C   0  0  0  0  0  0  0  0  0  0  0  0
   -2.7698   -0.8337    0.0000 C   0  0  0  0  0  0  0  0  0  0  0  0
   -0.5406    0.4321    0.0000 C   0  0  0  0  0  0  0  0  0  0  0  0
    0.1562    1.6433    0.0000 O   0  0  0  0  0  0  0  0  0  0  0  0
   -4.1833    0.1609    0.0000 Cl  0  0  0  0  0  0  0  0  0  0  0  0
    0.8469    1.2140    0.0000 P   0  0  0  0  0  0  0  0  0  0  0  0
    1.3257    1.8965    0.0000 O   0  0  0  0  0  0  0  0  0  0  0  0
    0.5291    0.4338    0.0000 O   0  0  0  0  0  0  0  0  0  0  0  0
    1.6035    0.9008    0.0000 O   0  0  0  0  0  0  0  0  0  0  0  0
    0.9134   -0.3786    0.0000 C   0  0  0  0  0  0  0  0  0  0  0  0
    1.5372    0.0636    0.0000 C   0  0  0  0  0  0  0  0  0  0  0  0
    1.1594   -1.1993    0.0000 C   0  0  0  0  0  0  0  0  0  0  0  0
    2.3124   -0.2306    0.0000 C   0  0  0  0  0  0  0  0  0  0  0  0
    1.6338   -1.8977    0.0000 C   0  0  0  0  0  0  0  0  0  0  0  0
    3.0892    0.0884    0.0000 C   0  0  0  0  0  0  0  0  0  0  0  0
    2.4668   -1.8383    0.0000 Cl  0  0  0  0  0  0  0  0  0  0  0  0
    3.0379    0.9216    0.0000 Cl  0  0  0  0  0  0  0  0  0  0  0  0
  1  2  1  0  0  0  0 
  1  3  1  0  0  0  0 
  1  4  2  0  0  0  0 
  2  5  1  0  0  0  0 
  6  3  1  0  0  0  0 
  3  7  2  0  0  0  0 
  8  4  1  0  0  0  0 
  5  9  2  0  0  0  0 
  5 10  1  0  0  0  0 
 10  6  2  0  0  0  0 
  6 11  1  0  0  0  0 
  7 12  1  0  0  0  0 
 12  8  2  0  0  0  0 
  8 13  1  0  0  0  0 
 10 14  1  0  0  0  0 
 13 15  1  0  0  0  0 
 15 16  2  0  0  0  0 
 15 17  1  0  0  0  0 
 15 18  1  0  0  0  0 
 17 19  1  0  0  0  0 
 18 20  1  0  0  0  0 
 19 21  1  0  0  0  0 
 20 22  1  0  0  0  0 
 21 23  1  0  0  0  0 
 22 24  1  0  0  0  0 
 23 25  1  0  0  0  0 
 24 26  1  0  0  0  0 
M  END
> <Name>
Coumarin, 3-chloro-7-hydroxy-4-methyl-, bis(3-chloropropyl) phosphate

> <Source>
Smiles

> <Tox>
3.323

> <CAS>
4467-21-4

$$$$

  CDK

  9  8  0  0  0  0  0  0  0  0999 V2000
    5.2715    0.4606    0.0000 C   0  0  0  0  0  0  0  0  0  0  0  0
    4.4014    0.0000    0.0000 O   0  0  0  0  0  0  0  0  0  0  0  0
    3.4802    0.4606    0.0000 C   0  0  0  0  0  0  0  0  0  0  0  0
    2.6613    0.0000    0.0000 O   0  0  0  0  0  0  0  0  0  0  0  0
    3.4802    1.4842    0.0000 O   0  0  0  0  0  0  0  0  0  0  0  0
    1.7913    0.4606    0.0000 C   0  0  0  0  0  0  0  0  0  0  0  0
    0.8700    0.0000    0.0000 O   0  0  0  0  0  0  0  0  0  0  0  0
    1.7913    1.4842    0.0000 O   0  0  0  0  0  0  0  0  0  0  0  0
    0.0000    0.4606    0.0000 C   0  0  0  0  0  0  0  0  0  0  0  0
  1  2  1  0  0  0  0 
  2  3  1  0  0  0  0 
  3  4  1  0  0  0  0 
  3  5  2  0  0  0  0 
  4  6  1  0  0  0  0 
  6  7  1  0  0  0  0 
  6  8  2  0  0  0  0 
  7  9  1  0  0  0  0 
M  END
> <Name>
Formic acid, oxydi-, dimethyl ester (7CI,8CI)

> <Source>
NIST2DMolFile

> <Tox>
2.712

> <CAS>
4525-33-1

$$$$

  CDK

  6  5  0  0  0  0  0  0  0  0999 V2000
    2.5703    1.5323    0.0000 C   0  0  0  0  0  0  0  0  0  0  0  0
    1.7300    0.9886    0.0000 N   0  0  0  0  0  0  0  0  0  0  0  0
    3.4601    1.0380    0.0000 C   0  0  0  0  0  0  0  0  0  0  0  0
    0.8897    1.4829    0.0000 N   0  0  0  0  0  0  0  0  0  0  0  0
    1.7300    0.0000    0.0000 C   0  0  0  0  0  0  0  0  0  0  0  0
    0.0000    0.9886    0.0000 O   0  0  0  0  0  0  0  0  0  0  0  0
  1  2  1  0  0  0  0 
  1  3  2  0  0  0  0 
  2  4  1  0  0  0  0 
  2  5  1  0  0  0  0 
  4  6  2  0  0  0  0 
M  END
> <Name>
Ethenamine, N-methyl-N-nitroso- (9CI)

> <Source>
NIST2DMolFile

> <Tox>
3.555

> <CAS>
4549-40-0

$$$$

  CDK

 24 24  0  0  0  0  0  0  0  0999 V2000
    8.4886    2.4253    0.0000 C   0  0  0  0  0  0  0  0  0  0  0  0
    7.2760    1.7257    0.0000 C   0  0  0  0  0  0  0  0  0  0  0  0
    6.0633    2.4253    0.0000 O   0  0  0  0  0  0  0  0  0  0  0  0
    4.8506    1.7257    0.0000 C   0  0  0  0  0  0  0  0  0  0  0  0
    4.8506    0.3265    0.0000 O   0  0  0  0  0  0  0  0  0  0  0  0
    3.6380    2.4253    0.0000 C   0  0  0  0  0  0  0  0  0  0  0  0
    2.9384    1.2127    0.0000 C   0  0  0  0  0  0  0  0  0  0  0  0
    4.3376    3.6380    0.0000 C   0  0  0  0  0  0  0  0  0  0  0  0
    2.4253    3.1249    0.0000 C   0  0  0  0  0  0  0  0  0  0  0  0
    3.6380    0.0000    0.0000 C   0  0  0  0  0  0  0  0  0  0  0  0
    5.7368    3.6380    0.0000 O   0  0  0  0  0  0  0  0  0  0  0  0
    3.6380    4.8506    0.0000 N   0  0  0  0  0  0  0  0  0  0  0  0
    1.2127    2.4253    0.0000 C   0  0  0  0  0  0  0  0  0  0  0  0
    2.4253    4.5242    0.0000 C   0  0  0  0  0  0  0  0  0  0  0  0
    4.3376    6.0633    0.0000 C   0  0  0  0  0  0  0  0  0  0  0  0
    0.0000    3.1249    0.0000 C   0  0  0  0  0  0  0  0  0  0  0  0
    1.2127    5.2238    0.0000 C   0  0  0  0  0  0  0  0  0  0  0  0
    3.6380    7.2760    0.0000 C   0  0  0  0  0  0  0  0  0  0  0  0
    0.0000    4.5242    0.0000 C   0  0  0  0  0  0  0  0  0  0  0  0
    4.3376    8.4886    0.0000 N   0  0  0  0  0  0  0  0  0  0  0  0
    3.6380    9.7013    0.0000 C   0  0  0  0  0  0  0  0  0  0  0  0
    5.7368    8.4886    0.0000 C   0  0  0  0  0  0  0  0  0  0  0  0
    4.3376   10.9139    0.0000 C   0  0  0  0  0  0  0  0  0  0  0  0
    6.4364    9.7013    0.0000 C   0  0  0  0  0  0  0  0  0  0  0  0
  1  2  1  0  0  0  0 
  2  3  1  0  0  0  0 
  3  4  1  0  0  0  0 
  4  5  2  0  0  0  0 
  4  6  1  0  0  0  0 
  6  7  1  0  0  0  0 
  6  8  1  0  0  0  0 
  6  9  1  0  0  0  0 
  7 10  1  0  0  0  0 
  8 11  2  0  0  0  0 
  8 12  1  0  0  0  0 
  9 13  2  0  0  0  0 
  9 14  1  0  0  0  0 
 12 15  1  0  0  0  0 
 13 16  1  0  0  0  0 
 17 14  2  0  0  0  0 
 15 18  1  0  0  0  0 
 16 19  2  0  0  0  0 
 19 17  1  0  0  0  0 
 18 20  1  0  0  0  0 
 20 21  1  0  0  0  0 
 20 22  1  0  0  0  0 
 21 23  1  0  0  0  0 
 22 24  1  0  0  0  0 
M  END
> <Name>
Benzeneacetic acid, alpha-(((2-(diethylamino)ethyl)amino)carbonyl)-alpha-ethyl-, ethyl ester

> <Source>
IndexNet2DMolFile

> <Tox>
2.739

> <CAS>
4551-59-1

$$$$

  CDK

  8  7  0  0  0  0  0  0  0  0999 V2000
    0.0000   -1.1549    0.0000 N   0  0  0  0  0  0  0  0  0  0  0  0
    1.3284   -1.1549    0.0000 C   0  0  0  0  0  0  0  0  0  0  0  0
    2.6568   -1.1549    0.0000 C   0  0  0  0  0  0  0  0  0  0  0  0
    3.3270   -2.3038    0.0000 C   0  0  0  0  0  0  0  0  0  0  0  0
    3.3270   -0.0000    0.0000 C   0  0  0  0  0  0  0  0  0  0  0  0
    4.6555   -2.3038    0.0000 C   0  0  0  0  0  0  0  0  0  0  0  0
    5.3197   -1.1549    0.0000 C   0  0  0  0  0  0  0  0  0  0  0  0
    5.9839   -0.0000    0.0000 N   0  0  0  0  0  0  0  0  0  0  0  0
  1  2  3  0  0  0  0 
  2  3  1  0  0  0  0 
  3  4  1  0  0  0  0 
  3  5  1  0  0  0  0 
  4  6  1  0  0  0  0 
  6  7  1  0  0  0  0 
  7  8  3  0  0  0  0 
M  END
> <Name>
1,5-Valerodinitrile, 2-methyl-

> <Source>
DSSTox2DMolFile

> <Tox>
2.432

> <CAS>
4553-62-2

$$$$

  CDK

  8  7  0  0  0  0  0  0  0  0999 V2000
    2.3488    0.5839   -0.0464 C   0  0  0  0  0  0  0  0  0  0  0  0
    1.0543   -0.2299   -0.1308 C   0  0  0  0  0  0  0  0  0  0  0  0
    3.4058   -0.3390    0.0881 O   0  0  0  0  0  0  0  0  0  0  0  0
   -0.1231    0.6676   -0.2518 N   0  0  0  0  0  0  0  0  0  0  0  0
   -1.4460   -0.0038    0.0114 C   0  0  0  0  0  0  0  0  0  0  0  0
   -2.5416    1.0629   -0.0940 C   0  0  0  0  0  0  0  0  0  0  0  0
   -1.6995   -1.0796   -1.0484 C   0  0  0  0  0  0  0  0  0  0  0  0
   -1.4958   -0.6406    1.4064 C   0  0  0  0  0  0  0  0  0  0  0  0
  1  2  1  0  0  0  0 
  1  3  1  0  0  0  0 
  2  4  1  0  0  0  0 
  4  5  1  0  0  0  0 
  5  6  1  0  0  0  0 
  5  7  1  0  0  0  0 
  5  8  1  0  0  0  0 
M  END
> <Name>
Ethanol, 2-((1,1-dimethylethyl)amino)-

> <Source>
DougDB3DMolFile

> <Tox>
1.859

> <CAS>
4620-70-6

$$$$

  CDK

 28 31  0  0  0  0  0  0  0  0999 V2000
    0.0000    0.0000    0.0000 O   0  0  0  0  0  0  0  0  0  0  0  0
    0.0200   -1.2000   -0.0800 C   0  0  0  0  0  0  0  0  0  0  0  0
   -1.2600   -1.9800   -0.1800 C   0  0  0  0  0  0  0  0  0  0  0  0
    1.3000   -1.9800   -0.1200 C   0  0  0  0  0  0  0  0  0  0  0  0
   -1.2600   -3.4000   -0.2800 C   0  0  0  0  0  0  0  0  0  0  0  0
   -2.5000   -1.2800   -0.1600 C   0  0  0  0  0  0  0  0  0  0  0  0
    1.3000   -3.4000   -0.2400 C   0  0  0  0  0  0  0  0  0  0  0  0
    2.5400   -1.2800   -0.0400 C   0  0  0  0  0  0  0  0  0  0  0  0
    0.0200   -4.1800   -0.3200 C   0  0  0  0  0  0  0  0  0  0  0  0
   -2.5000   -4.1000   -0.3600 C   0  0  0  0  0  0  0  0  0  0  0  0
   -3.7200   -1.9800   -0.2400 C   0  0  0  0  0  0  0  0  0  0  0  0
   -2.5000    0.0400   -0.0400 O   0  0  0  0  0  0  0  0  0  0  0  0
    2.5400   -4.1000   -0.2800 C   0  0  0  0  0  0  0  0  0  0  0  0
    2.6800    0.0800    0.0600 N   0  0  0  0  0  0  0  0  0  0  0  0
    3.7600   -2.0000   -0.0800 C   0  0  0  0  0  0  0  0  0  0  0  0
    0.0400   -5.3800   -0.4000 O   0  0  0  0  0  0  0  0  0  0  0  0
   -2.6200   -5.4600   -0.4600 N   0  0  0  0  0  0  0  0  0  0  0  0
   -3.7200   -3.3800   -0.3400 C   0  0  0  0  0  0  0  0  0  0  0  0
   -4.9800   -1.2600   -0.2200 C   0  0  0  0  0  0  0  0  0  0  0  0
    3.7400   -3.4000   -0.2000 C   0  0  0  0  0  0  0  0  0  0  0  0
    2.5800   -5.4200   -0.3800 O   0  0  0  0  0  0  0  0  0  0  0  0
   -5.7800   -1.2800    0.9400 C   0  0  0  0  0  0  0  0  0  0  0  0
   -5.4200   -0.5600   -1.3600 C   0  0  0  0  0  0  0  0  0  0  0  0
   -7.0000   -0.5800    0.9600 C   0  0  0  0  0  0  0  0  0  0  0  0
   -6.6400    0.1200   -1.3400 C   0  0  0  0  0  0  0  0  0  0  0  0
   -7.4400    0.1200   -0.1800 C   0  0  0  0  0  0  0  0  0  0  0  0
   -8.5800    0.7600   -0.1600 O   0  0  0  0  0  0  0  0  0  0  0  0
   -8.9200    1.5400   -1.3000 C   0  0  0  0  0  0  0  0  0  0  0  0
  1  2  2  0  0  0  0 
  2  3  1  0  0  0  0 
  2  4  1  0  0  0  0 
  3  5  2  0  0  0  0 
  3  6  1  0  0  0  0 
  7  4  2  0  0  0  0 
  4  8  1  0  0  0  0 
  5  9  1  0  0  0  0 
  5 10  1  0  0  0  0 
 11  6  2  0  0  0  0 
  6 12  1  0  0  0  0 
  9  7  1  0  0  0  0 
  7 13  1  0  0  0  0 
 14  8  1  0  0  0  0 
  8 15  2  0  0  0  0 
  9 16  2  0  0  0  0 
 17 10  1  0  0  0  0 
 10 18  2  0  0  0  0 
 18 11  1  0  0  0  0 
 11 19  1  0  0  0  0 
 20 13  2  0  0  0  0 
 13 21  1  0  0  0  0 
 15 20  1  0  0  0  0 
 22 19  2  0  0  0  0 
 19 23  1  0  0  0  0 
 24 22  1  0  0  0  0 
 25 23  2  0  0  0  0 
 26 24  2  0  0  0  0 
 26 25  1  0  0  0  0 
 27 26  1  0  0  0  0 
 28 27  1  0  0  0  0 
M  END
> <Name>
9,10-Anthracenedione, 4,8-diamino-1,5-dihydroxy-2-(4-methoxyphenyl)-

> <Source>
NIH3DMolFile

> <Tox>
1.771

> <CAS>
4702-64-1

$$$$

  CDK

  9  9  0  0  0  0  0  0  0  0999 V2000
    0.4844   -2.1541    1.1108 O   0  0  0  0  0  0  0  0  0  0  0  0
    0.9929   -1.8570    0.0262 C   0  0  0  0  0  0  0  0  0  0  0  0
    1.7344   -2.7866   -0.7067 N   0  0  0  0  0  0  0  0  0  0  0  0
    0.8493   -0.4546   -0.5258 C   0  0  0  0  0  0  0  0  0  0  0  0
    2.5716   -2.6906   -1.8217 C   0  0  0  0  0  0  0  0  0  0  0  0
    0.5371   -0.4433   -2.0150 C   0  0  0  0  0  0  0  0  0  0  0  0
    3.0243   -3.6897   -2.3843 O   0  0  0  0  0  0  0  0  0  0  0  0
    2.9411   -1.3059   -2.2891 C   0  0  0  0  0  0  0  0  0  0  0  0
    1.7788   -0.5392   -2.8973 C   0  0  0  0  0  0  0  0  0  0  0  0
  1  2  2  0  0  0  0 
  3  2  1  0  0  0  0 
  4  2  1  0  0  0  0 
  3  5  1  0  0  0  0 
  6  4  1  0  0  0  0 
  7  5  2  0  0  0  0 
  8  5  1  0  0  0  0 
  6  9  1  0  0  0  0 
  9  8  1  0  0  0  0 
M  END
> <Name>
Adipimide

> <Source>
Chemidplus3DMolFile

> <Tox>
0.750

> <CAS>
4726-93-6

$$$$

  CDK

 10  9  0  0  0  0  0  0  0  0999 V2000
    2.5904    1.9926    0.0000 C   0  0  0  0  0  0  0  0  0  0  0  0
    1.7435    1.4945    0.0000 N   0  0  0  0  0  0  0  0  0  0  0  0
    3.4373    1.4945    0.0000 S   0  0  0  0  0  0  0  0  0  0  0  0
    2.5904    2.9889    0.0000 S   0  0  0  0  0  0  0  0  0  0  0  0
    1.7435    0.4982    0.0000 C   0  0  0  0  0  0  0  0  0  0  0  0
    0.8469    1.9926    0.0000 C   0  0  0  0  0  0  0  0  0  0  0  0
    4.3340    1.9926    0.0000 C   0  0  0  0  0  0  0  0  0  0  0  0
    0.8469    0.0000    0.0000 C   0  0  0  0  0  0  0  0  0  0  0  0
    0.0000    1.4945    0.0000 C   0  0  0  0  0  0  0  0  0  0  0  0
    5.1808    1.4945    0.0000 C   0  0  0  0  0  0  0  0  0  0  0  0
  1  2  1  0  0  0  0 
  1  3  1  0  0  0  0 
  1  4  2  0  0  0  0 
  2  5  1  0  0  0  0 
  2  6  1  0  0  0  0 
  3  7  1  0  0  0  0 
  5  8  1  0  0  0  0 
  6  9  1  0  0  0  0 
  7 10  1  0  0  0  0 
M  END
> <Name>
Carbamodithioic acid, diethyl-, ethyl ester

> <Source>
NIST2DMolFile

> <Tox>
2.396

> <CAS>
4740-11-8

$$$$

  CDK

 17 18  0  0  0  0  0  0  0  0999 V2000
    0.5025    2.6130    0.0000 C   0  0  0  0  0  0  0  0  0  0  0  0
    0.0000    1.7588    0.0000 C   0  0  0  0  0  0  0  0  0  0  0  0
    1.5075    2.6130    0.0000 C   0  0  0  0  0  0  0  0  0  0  0  0
    0.5025    0.9045    0.0000 C   0  0  0  0  0  0  0  0  0  0  0  0
    2.0100    1.7588    0.0000 C   0  0  0  0  0  0  0  0  0  0  0  0
    1.5075    0.9045    0.0000 C   0  0  0  0  0  0  0  0  0  0  0  0
    2.9648    1.7588    0.0000 C   0  0  0  0  0  0  0  0  0  0  0  0
    3.4673    0.9045    0.0000 C   0  0  0  0  0  0  0  0  0  0  0  0
    2.7135    2.7135    0.0000 O   0  0  0  0  0  0  0  0  0  0  0  0
    3.4673    2.6130    0.0000 C   0  0  0  0  0  0  0  0  0  0  0  0
    4.4723    0.9045    0.0000 O   0  0  0  0  0  0  0  0  0  0  0  0
    2.9648    0.0000    0.0000 N   0  0  0  0  0  0  0  0  0  0  0  0
    2.9648    3.5175    0.0000 C   0  0  0  0  0  0  0  0  0  0  0  0
    4.4723    2.6130    0.0000 C   0  0  0  0  0  0  0  0  0  0  0  0
    3.4673    4.3718    0.0000 C   0  0  0  0  0  0  0  0  0  0  0  0
    4.9748    3.5175    0.0000 C   0  0  0  0  0  0  0  0  0  0  0  0
    4.4723    4.3718    0.0000 C   0  0  0  0  0  0  0  0  0  0  0  0
  1  2  2  0  0  0  0 
  3  1  1  0  0  0  0 
  2  4  1  0  0  0  0 
  5  3  2  0  0  0  0 
  4  6  2  0  0  0  0 
  5  7  1  0  0  0  0 
  6  5  1  0  0  0  0 
  7  8  1  0  0  0  0 
  7  9  1  0  0  0  0 
  7 10  1  0  0  0  0 
  8 11  2  0  0  0  0 
  8 12  1  0  0  0  0 
 13 10  2  0  0  0  0 
 10 14  1  0  0  0  0 
 15 13  1  0  0  0  0 
 14 16  2  0  0  0  0 
 17 15  2  0  0  0  0 
 16 17  1  0  0  0  0 
M  END
> <Name>
Benzeneacetamide, alpha-hydroxy-alpha-phenyl- (9CI)

> <Source>
NIST2DMolFile

> <Tox>
2.166

> <CAS>
4746-87-6

$$$$

  CDK

 11 10  0  0  0  0  0  0  0  0999 V2000
    1.9789    1.2709   -1.9311 S   0  0  0  0  0  0  0  0  0  0  0  0
    2.6560    0.9051    0.0525 P   0  0  0  0  0  0  0  0  0  0  0  0
    2.5097   -0.1618   -2.8907 C   0  0  0  0  0  0  0  0  0  0  0  0
    2.4944    2.3402    1.3807 S   0  0  0  0  0  0  0  0  0  0  0  0
    1.9453   -0.4816    0.5488 O   0  0  0  0  0  0  0  0  0  0  0  0
    4.1881    0.3452   -0.0621 O   0  0  0  0  0  0  0  0  0  0  0  0
    2.0765   -0.0109   -4.3420 C   0  0  0  0  0  0  0  0  0  0  0  0
    0.5506   -0.5219    0.8012 C   0  0  0  0  0  0  0  0  0  0  0  0
    5.2369    1.2055   -0.4754 C   0  0  0  0  0  0  0  0  0  0  0  0
    2.6041   -1.4587   -5.3067 S   0  0  0  0  0  0  0  0  0  0  0  0
    1.9022   -0.9786   -6.9011 C   0  0  0  0  0  0  0  0  0  0  0  0
  1  2  1  0  0  0  0 
  1  3  1  0  0  0  0 
  4  2  2  0  0  0  0 
  2  5  1  0  0  0  0 
  2  6  1  0  0  0  0 
  3  7  1  0  0  0  0 
  5  8  1  0  0  0  0 
  6  9  1  0  0  0  0 
 10  7  1  0  0  0  0 
 10 11  1  0  0  0  0 
M  END
> <Name>
Phosphorodithioic acid, O,O-dimethyl S-2-(methylthio)ethyl ester

> <Source>
Chemidplus3DMolFile

> <Tox>
3.491

> <CAS>
4752-35-6

$$$$

  CDK

 17 18  0  0  0  0  0  0  0  0999 V2000
   -0.1521   -0.1026    0.0000 C   0  0  0  0  0  0  0  0  0  0  0  0
   -0.9367    0.1523    0.0000 O   0  0  0  0  0  0  0  0  0  0  0  0
   -0.1521   -0.9276    0.0000 C   0  0  0  0  0  0  0  0  0  0  0  0
    0.5624    0.3099    0.0000 C   0  0  0  0  0  0  0  0  0  0  0  0
   -1.4216   -0.5151    0.0000 C   0  0  0  0  0  0  0  0  0  0  0  0
   -0.9367   -1.1826    0.0000 C   0  0  0  0  0  0  0  0  0  0  0  0
    0.5624   -1.3401    0.0000 C   0  0  0  0  0  0  0  0  0  0  0  0
    1.2768   -0.1026    0.0000 C   0  0  0  0  0  0  0  0  0  0  0  0
    0.5624    1.1349    0.0000 O   0  0  0  0  0  0  0  0  0  0  0  0
   -2.2098   -0.7590    0.0000 C   0  0  0  0  0  0  0  0  0  0  0  0
   -1.9823    0.0901    0.0000 C   0  0  0  0  0  0  0  0  0  0  0  0
    0.5624   -2.1651    0.0000 C   0  0  0  0  0  0  0  0  0  0  0  0
    1.2768   -0.9276    0.0000 C   0  0  0  0  0  0  0  0  0  0  0  0
    1.2768    1.5474    0.0000 C   0  0  0  0  0  0  0  0  0  0  0  0
    1.9913    1.1349    0.0000 O   0  0  0  0  0  0  0  0  0  0  0  0
    1.2768    2.3724    0.0000 N   0  0  0  0  0  0  0  0  0  0  0  0
    1.9913    2.7849    0.0000 C   0  0  0  0  0  0  0  0  0  0  0  0
  1  2  1  0  0  0  0 
  1  3  1  0  0  0  0 
  1  4  2  0  0  0  0 
  2  5  1  0  0  0  0 
  6  3  1  0  0  0  0 
  3  7  2  0  0  0  0 
  8  4  1  0  0  0  0 
  4  9  1  0  0  0  0 
  5 10  1  0  0  0  0 
  5 11  1  0  0  0  0 
  5  6  1  0  0  0  0 
  7 12  1  0  0  0  0 
  7 13  1  0  0  0  0 
 13  8  2  0  0  0  0 
  9 14  1  0  0  0  0 
 14 15  2  0  0  0  0 
 14 16  1  0  0  0  0 
 16 17  1  0  0  0  0 
M  END
> <Name>
Carbamic acid, methyl-, 2,3-dihydro-2,2,4-trimethyl-7-benzofuranyl ester

> <Source>
Smiles

> <Tox>
4.292

> <CAS>
4785-72-2

$$$$

  CDK

 20 21  0  0  0  0  0  0  0  0999 V2000
    5.9428    1.9314    0.0000 C   0  0  0  0  0  0  0  0  0  0  0  0
    6.6856    1.2876    0.0000 C   0  0  0  0  0  0  0  0  0  0  0  0
    5.0018    1.6343    0.0000 C   0  0  0  0  0  0  0  0  0  0  0  0
    7.6265    1.5847    0.0000 N   0  0  0  0  0  0  0  0  0  0  0  0
    4.2590    2.3771    0.0000 C   0  0  0  0  0  0  0  0  0  0  0  0
    7.9237    2.5752    0.0000 C   0  0  0  0  0  0  0  0  0  0  0  0
    8.4189    1.0400    0.0000 C   0  0  0  0  0  0  0  0  0  0  0  0
    3.3180    2.0800    0.0000 C   0  0  0  0  0  0  0  0  0  0  0  0
    7.3294    3.3676    0.0000 O   0  0  0  0  0  0  0  0  0  0  0  0
    8.9141    2.5752    0.0000 C   0  0  0  0  0  0  0  0  0  0  0  0
    8.3694    0.0000    0.0000 O   0  0  0  0  0  0  0  0  0  0  0  0
    9.2113    1.5847    0.0000 C   0  0  0  0  0  0  0  0  0  0  0  0
    2.5752    2.7238    0.0000 C   0  0  0  0  0  0  0  0  0  0  0  0
    1.6343    2.4266    0.0000 N   0  0  0  0  0  0  0  0  0  0  0  0
    0.8419    3.0209    0.0000 C   0  0  0  0  0  0  0  0  0  0  0  0
    1.2876    1.4857    0.0000 C   0  0  0  0  0  0  0  0  0  0  0  0
    0.8914    4.0114    0.0000 O   0  0  0  0  0  0  0  0  0  0  0  0
    0.0000    2.4266    0.0000 C   0  0  0  0  0  0  0  0  0  0  0  0
    1.8819    0.6438    0.0000 O   0  0  0  0  0  0  0  0  0  0  0  0
    0.2971    1.4857    0.0000 C   0  0  0  0  0  0  0  0  0  0  0  0
  1  2  1  0  0  0  0 
  1  3  1  0  0  0  0 
  2  4  1  0  0  0  0 
  3  5  1  0  0  0  0 
  4  6  1  0  0  0  0 
  7  4  1  0  0  0  0 
  5  8  1  0  0  0  0 
  6  9  2  0  0  0  0 
  6 10  1  0  0  0  0 
  7 11  2  0  0  0  0 
 12  7  1  0  0  0  0 
  8 13  1  0  0  0  0 
 10 12  2  0  0  0  0 
 13 14  1  0  0  0  0 
 15 14  1  0  0  0  0 
 14 16  1  0  0  0  0 
 15 17  2  0  0  0  0 
 18 15  1  0  0  0  0 
 16 19  2  0  0  0  0 
 16 20  1  0  0  0  0 
 20 18  2  0  0  0  0 
M  END
> <Name>
1H-Pyrrole-2,5-dione, 1,1'-(1,6-hexanediyl)bis- (9CI)

> <Source>
NIST2DMolFile

> <Tox>
2.701

> <CAS>
4856-87-5

$$$$

  CDK

 14 14  0  0  0  0  0  0  0  0999 V2000
   -0.5784    0.6089    0.0000 N   0  0  0  0  0  0  0  0  0  0  0  0
    0.1361    1.0214    0.0000 C   0  0  0  0  0  0  0  0  0  0  0  0
   -1.2929    1.0214    0.0000 C   0  0  0  0  0  0  0  0  0  0  0  0
    0.8506    0.6089    0.0000 S   0  0  0  0  0  0  0  0  0  0  0  0
    0.1361    1.8464    0.0000 N   0  0  0  0  0  0  0  0  0  0  0  0
   -1.2929    1.8464    0.0000 C   0  0  0  0  0  0  0  0  0  0  0  0
    0.8506   -0.2161    0.0000 C   0  0  0  0  0  0  0  0  0  0  0  0
   -0.5784    2.2589    0.0000 C   0  0  0  0  0  0  0  0  0  0  0  0
    0.8506   -1.0411    0.0000 C   0  0  0  0  0  0  0  0  0  0  0  0
    0.8506   -1.8661    0.0000 C   0  0  0  0  0  0  0  0  0  0  0  0
    1.5650   -2.2786    0.0000 F   0  0  0  0  0  0  0  0  0  0  0  0
    0.1361   -2.2786    0.0000 C   0  0  0  0  0  0  0  0  0  0  0  0
   -0.5784   -1.8661    0.0000 F   0  0  0  0  0  0  0  0  0  0  0  0
    0.1361   -3.1036    0.0000 F   0  0  0  0  0  0  0  0  0  0  0  0
  1  2  1  0  0  0  0 
  1  3  2  0  0  0  0 
  2  4  1  0  0  0  0 
  2  5  2  0  0  0  0 
  6  3  1  0  0  0  0 
  4  7  1  0  0  0  0 
  5  8  1  0  0  0  0 
  8  6  2  0  0  0  0 
  7  9  1  0  0  0  0 
  9 10  1  0  0  0  0 
 10 11  1  0  0  0  0 
 10 12  2  0  0  0  0 
 12 13  1  0  0  0  0 
 12 14  1  0  0  0  0 
M  END
> <Name>
Pyrimidine, 2-((3,4,4-trifluoro-3-butenyl)thio)-

> <Source>
Smiles

> <Tox>
2.459

> <CAS>
4871-71-0

$$$$

  CDK

 23 26  0  0  0  0  0  0  0  0999 V2000
    3.5652   -3.5342    0.0000 N   0  0  0  0  0  0  0  0  0  0  0  0
    4.3505   -4.6089    0.0000 C   0  0  0  0  0  0  0  0  0  0  0  0
    2.2941   -3.9475    0.0000 C   0  0  0  0  0  0  0  0  0  0  0  0
    3.5652   -5.6836    0.0000 S   0  0  0  0  0  0  0  0  0  0  0  0
    5.6836   -4.6089    0.0000 S   0  0  0  0  0  0  0  0  0  0  0  0
    2.2941   -5.2806    0.0000 C   0  0  0  0  0  0  0  0  0  0  0  0
    1.1367   -3.2758    0.0000 C   0  0  0  0  0  0  0  0  0  0  0  0
    6.3346   -3.4515    0.0000 N   0  0  0  0  0  0  0  0  0  0  0  0
    1.1367   -5.9419    0.0000 C   0  0  0  0  0  0  0  0  0  0  0  0
    0.0000   -3.9475    0.0000 C   0  0  0  0  0  0  0  0  0  0  0  0
    7.6677   -3.4515    0.0000 C   0  0  0  0  0  0  0  0  0  0  0  0
    5.6836   -2.3148    0.0000 C   0  0  0  0  0  0  0  0  0  0  0  0
    0.0000   -5.2806    0.0000 C   0  0  0  0  0  0  0  0  0  0  0  0
    8.3394   -2.3148    0.0000 C   0  0  0  0  0  0  0  0  0  0  0  0
    8.3394   -4.6089    0.0000 C   0  0  0  0  0  0  0  0  0  0  0  0
    4.3505   -2.3148    0.0000 C   0  0  0  0  0  0  0  0  0  0  0  0
    6.3346   -1.1574    0.0000 C   0  0  0  0  0  0  0  0  0  0  0  0
    9.6724   -2.3148    0.0000 C   0  0  0  0  0  0  0  0  0  0  0  0
    9.6724   -4.6089    0.0000 C   0  0  0  0  0  0  0  0  0  0  0  0
    3.6788   -1.1574    0.0000 C   0  0  0  0  0  0  0  0  0  0  0  0
    5.6836   -0.0000    0.0000 C   0  0  0  0  0  0  0  0  0  0  0  0
   10.3338   -3.4515    0.0000 C   0  0  0  0  0  0  0  0  0  0  0  0
    4.3505   -0.0000    0.0000 C   0  0  0  0  0  0  0  0  0  0  0  0
  1  2  2  0  0  0  0 
  1  3  1  0  0  0  0 
  4  2  1  0  0  0  0 
  2  5  1  0  0  0  0 
  3  6  2  0  0  0  0 
  3  7  1  0  0  0  0 
  4  6  1  0  0  0  0 
  5  8  1  0  0  0  0 
  6  9  1  0  0  0  0 
 10  7  2  0  0  0  0 
  8 11  1  0  0  0  0 
  8 12  1  0  0  0  0 
  9 13  2  0  0  0  0 
 13 10  1  0  0  0  0 
 11 14  1  0  0  0  0 
 11 15  1  0  0  0  0 
 12 16  1  0  0  0  0 
 12 17  1  0  0  0  0 
 14 18  1  0  0  0  0 
 19 15  1  0  0  0  0 
 16 20  1  0  0  0  0 
 21 17  1  0  0  0  0 
 18 22  1  0  0  0  0 
 22 19  1  0  0  0  0 
 20 23  1  0  0  0  0 
 23 21  1  0  0  0  0 
M  END
> <Name>
2-Benzothiazolesulfenamide, N,N-dicyclohexyl-

> <Source>
DSSTox2DMolFile

> <Tox>
1.732

> <CAS>
4979-32-2

$$$$

  CDK

 23 24  0  0  0  0  0  0  0  0999 V2000
   10.3630   -3.3192    0.0000 C   0  0  0  0  0  0  0  0  0  0  0  0
   10.3630   -1.9890    0.0000 O   0  0  0  0  0  0  0  0  0  0  0  0
   11.5159   -3.9907    0.0000 C   0  0  0  0  0  0  0  0  0  0  0  0
    9.2102   -3.9907    0.0000 C   0  0  0  0  0  0  0  0  0  0  0  0
   11.5159   -1.3302    0.0000 C   0  0  0  0  0  0  0  0  0  0  0  0
   11.5159   -5.3209    0.0000 C   0  0  0  0  0  0  0  0  0  0  0  0
    9.2102   -5.3209    0.0000 C   0  0  0  0  0  0  0  0  0  0  0  0
    8.0573   -3.3192    0.0000 C   0  0  0  0  0  0  0  0  0  0  0  0
   12.6688   -1.9890    0.0000 C   0  0  0  0  0  0  0  0  0  0  0  0
   11.5159   -0.0000    0.0000 O   0  0  0  0  0  0  0  0  0  0  0  0
   10.3630   -5.9797    0.0000 C   0  0  0  0  0  0  0  0  0  0  0  0
    8.0573   -1.9890    0.0000 O   0  0  0  0  0  0  0  0  0  0  0  0
    6.9045   -3.9907    0.0000 O   0  0  0  0  0  0  0  0  0  0  0  0
    5.7643   -3.3192    0.0000 C   0  0  0  0  0  0  0  0  0  0  0  0
    4.6114   -3.9907    0.0000 C   0  0  0  0  0  0  0  0  0  0  0  0
    5.7643   -1.9890    0.0000 C   0  0  0  0  0  0  0  0  0  0  0  0
    3.4586   -3.3192    0.0000 C   0  0  0  0  0  0  0  0  0  0  0  0
    4.6114   -1.3302    0.0000 C   0  0  0  0  0  0  0  0  0  0  0  0
    3.4586   -1.9890    0.0000 C   0  0  0  0  0  0  0  0  0  0  0  0
    2.3057   -1.3302    0.0000 N   0  0  0  0  0  0  0  0  0  0  0  0
    1.1529   -1.9890    0.0000 C   0  0  0  0  0  0  0  0  0  0  0  0
    0.0000   -1.3302    0.0000 C   0  0  0  0  0  0  0  0  0  0  0  0
    1.1529   -3.3192    0.0000 O   0  0  0  0  0  0  0  0  0  0  0  0
  1  2  1  0  0  0  0 
  1  3  2  0  0  0  0 
  1  4  1  0  0  0  0 
  2  5  1  0  0  0  0 
  3  6  1  0  0  0  0 
  7  4  2  0  0  0  0 
  4  8  1  0  0  0  0 
  5  9  1  0  0  0  0 
  5 10  2  0  0  0  0 
  6 11  2  0  0  0  0 
 11  7  1  0  0  0  0 
  8 12  2  0  0  0  0 
  8 13  1  0  0  0  0 
 13 14  1  0  0  0  0 
 14 15  2  0  0  0  0 
 14 16  1  0  0  0  0 
 15 17  1  0  0  0  0 
 18 16  2  0  0  0  0 
 17 19  2  0  0  0  0 
 19 18  1  0  0  0  0 
 19 20  1  0  0  0  0 
 20 21  1  0  0  0  0 
 21 22  1  0  0  0  0 
 21 23  2  0  0  0  0 
M  END
> <Name>
Benzoic acid, 2-(acetyloxy)-, 4-(acetylamino)phenyl ester (9CI)

> <Source>
DSSTox2DMolFile

> <Tox>
1.952

> <CAS>
5003-48-5

$$$$

  CDK

 46 53  0  0  0  0  0  0  0  0999 V2000
    3.4869    2.2665    0.2991 O   0  0  0  0  0  0  0  0  0  0  0  0
    3.6475    1.2795   -0.4057 C   0  0  0  0  0  0  0  0  0  0  0  0
    4.2250    0.0722   -0.0610 N   0  0  0  0  0  0  0  0  0  0  0  0
    3.1962    1.1866   -1.8431 C   0  0  0  0  0  0  0  0  0  0  0  0
    4.1898   -0.8869   -1.0557 C   0  0  0  0  0  0  0  0  0  0  0  0
    4.7628   -0.1995    1.2580 C   0  0  0  0  0  0  0  0  0  0  0  0
    1.6599    1.2296   -2.0278 C   0  0  0  0  0  0  0  0  0  0  0  0
    3.5595   -0.2674   -2.2792 C   0  0  0  0  0  0  0  0  0  0  0  0
    4.5688   -2.0484   -0.9925 O   0  0  0  0  0  0  0  0  0  0  0  0
    6.2326    0.0965    1.3375 C   0  0  0  0  0  0  0  0  0  0  0  0
    1.3398   -0.1819   -1.6135 C   0  0  0  0  0  0  0  0  0  0  0  0
    1.4052    1.1250   -3.5243 C   0  0  0  0  0  0  0  0  0  0  0  0
    2.1839   -0.8681   -2.6547 C   0  0  0  0  0  0  0  0  0  0  0  0
    7.0639   -0.9206    1.0349 N   0  0  0  0  0  0  0  0  0  0  0  0
    6.6418    1.3630    1.7071 C   0  0  0  0  0  0  0  0  0  0  0  0
    0.5467   -0.6653   -0.6586 C   0  0  0  0  0  0  0  0  0  0  0  0
    1.7192   -0.1322   -3.8993 C   0  0  0  0  0  0  0  0  0  0  0  0
    0.9352    2.2609   -4.3480 C   0  0  0  0  0  0  0  0  0  0  0  0
    8.3860   -0.6482    1.1082 C   0  0  0  0  0  0  0  0  0  0  0  0
    8.0095    1.6047    1.7710 C   0  0  0  0  0  0  0  0  0  0  0  0
    0.4096   -2.1447   -0.5225 C   0  0  0  0  0  0  0  0  0  0  0  0
   -0.1677    0.2955    0.2315 C   0  0  0  0  0  0  0  0  0  0  0  0
    1.8962    3.3203   -4.1198 O   0  0  0  0  0  0  0  0  0  0  0  0
   -0.4543    2.7494   -3.8771 C   0  0  0  0  0  0  0  0  0  0  0  0
    0.9202    2.0049   -5.8753 C   0  0  0  0  0  0  0  0  0  0  0  0
    8.9050    0.5852    1.4673 C   0  0  0  0  0  0  0  0  0  0  0  0
   -0.5846   -2.7832   -1.2287 C   0  0  0  0  0  0  0  0  0  0  0  0
    1.2828   -2.8154    0.3037 C   0  0  0  0  0  0  0  0  0  0  0  0
   -1.3716    0.6701   -0.2094 N   0  0  0  0  0  0  0  0  0  0  0  0
    0.4467    0.7010    1.3835 C   0  0  0  0  0  0  0  0  0  0  0  0
   -1.3679    1.8086   -3.4864 C   0  0  0  0  0  0  0  0  0  0  0  0
   -0.6960    4.0961   -3.8768 C   0  0  0  0  0  0  0  0  0  0  0  0
    1.7862    2.7384   -6.5644 N   0  0  0  0  0  0  0  0  0  0  0  0
    0.0430    1.0780   -6.3426 C   0  0  0  0  0  0  0  0  0  0  0  0
   -0.7126   -4.1665   -1.1019 C   0  0  0  0  0  0  0  0  0  0  0  0
    1.1550   -4.1986    0.4305 C   0  0  0  0  0  0  0  0  0  0  0  0
   -2.0252    1.5421    0.5907 C   0  0  0  0  0  0  0  0  0  0  0  0
   -0.2566    1.5977    2.1800 C   0  0  0  0  0  0  0  0  0  0  0  0
   -2.6215    2.2492   -3.0620 C   0  0  0  0  0  0  0  0  0  0  0  0
   -1.9495    4.5368   -3.4523 C   0  0  0  0  0  0  0  0  0  0  0  0
    1.7687    2.5107   -7.8969 C   0  0  0  0  0  0  0  0  0  0  0  0
    0.0545    0.8717   -7.7176 C   0  0  0  0  0  0  0  0  0  0  0  0
    0.1573   -4.8741   -0.2723 C   0  0  0  0  0  0  0  0  0  0  0  0
   -1.5168    2.0312    1.7832 C   0  0  0  0  0  0  0  0  0  0  0  0
   -2.9123    3.6132   -3.0450 C   0  0  0  0  0  0  0  0  0  0  0  0
    0.9309    1.5977   -8.5166 C   0  0  0  0  0  0  0  0  0  0  0  0
  1  2  2  0  0  0  0 
  3  2  1  0  0  0  0 
  4  2  1  0  0  0  0 
  3  5  1  0  0  0  0 
  3  6  1  0  0  0  0 
  4  7  1  0  0  0  0 
  4  8  1  0  0  0  0 
  9  5  2  0  0  0  0 
  8  5  1  0  0  0  0 
  6 10  1  0  0  0  0 
  7 11  1  0  0  0  0 
  7 12  1  0  0  0  0 
  8 13  1  0  0  0  0 
 14 10  1  0  0  0  0 
 10 15  2  0  0  0  0 
 13 11  1  0  0  0  0 
 11 16  2  0  0  0  0 
 12 17  2  0  0  0  0 
 12 18  1  0  0  0  0 
 13 17  1  0  0  0  0 
 14 19  2  0  0  0  0 
 15 20  1  0  0  0  0 
 16 21  1  0  0  0  0 
 16 22  1  0  0  0  0 
 23 18  1  0  0  0  0 
 18 24  1  0  0  0  0 
 18 25  1  0  0  0  0 
 19 26  1  0  0  0  0 
 20 26  2  0  0  0  0 
 21 27  2  0  0  0  0 
 21 28  1  0  0  0  0 
 29 22  1  0  0  0  0 
 22 30  2  0  0  0  0 
 24 31  2  0  0  0  0 
 24 32  1  0  0  0  0 
 33 25  1  0  0  0  0 
 25 34  2  0  0  0  0 
 27 35  1  0  0  0  0 
 28 36  2  0  0  0  0 
 29 37  2  0  0  0  0 
 30 38  1  0  0  0  0 
 31 39  1  0  0  0  0 
 32 40  2  0  0  0  0 
 33 41  2  0  0  0  0 
 34 42  1  0  0  0  0 
 35 43  2  0  0  0  0 
 36 43  1  0  0  0  0 
 37 44  1  0  0  0  0 
 38 44  2  0  0  0  0 
 39 45  2  0  0  0  0 
 40 45  1  0  0  0  0 
 41 46  1  0  0  0  0 
 42 46  2  0  0  0  0 
M  END
> <Name>
5-Norbornene-2,3-dicarboximide, 5-(alpha-hydroxy-alpha-2-pyridylbenzyl)-7-(alpha-2-pyridylbenzylidene)-N-(2-pyridylmethyl)-, endo-

> <Source>
Chemidplus3DMolFile

> <Tox>
5.064

> <CAS>
5014-11-9

$$$$

  CDK

 17 17  0  0  0  0  0  0  0  0999 V2000
    2.1356   -0.0987    0.0000 N   0  0  0  0  0  0  0  0  0  0  0  0
    2.6259    0.5648    0.0000 C   0  0  0  0  0  0  0  0  0  0  0  0
    1.3531    0.1626    0.0000 C   0  0  0  0  0  0  0  0  0  0  0  0
    2.1465    1.2361    0.0000 N   0  0  0  0  0  0  0  0  0  0  0  0
    1.3598    0.9876    0.0000 C   0  0  0  0  0  0  0  0  0  0  0  0
    0.6817   -0.3168    0.0000 N   0  0  0  0  0  0  0  0  0  0  0  0
    0.6963    1.4780    0.0000 C   0  0  0  0  0  0  0  0  0  0  0  0
   -0.0692    0.0249    0.0000 N   0  0  0  0  0  0  0  0  0  0  0  0
   -0.0601    1.1486    0.0000 O   0  0  0  0  0  0  0  0  0  0  0  0
    0.7893    2.2977    0.0000 N   0  0  0  0  0  0  0  0  0  0  0  0
   -0.7406   -0.4546    0.0000 N   0  0  0  0  0  0  0  0  0  0  0  0
   -0.6611   -1.2758    0.0000 C   0  0  0  0  0  0  0  0  0  0  0  0
   -1.4915   -0.1129    0.0000 C   0  0  0  0  0  0  0  0  0  0  0  0
   -0.5815   -2.0969    0.0000 C   0  0  0  0  0  0  0  0  0  0  0  0
   -2.2424    0.2288    0.0000 C   0  0  0  0  0  0  0  0  0  0  0  0
    0.2396   -2.0174    0.0000 Cl  0  0  0  0  0  0  0  0  0  0  0  0
   -2.5841   -0.5221    0.0000 Cl  0  0  0  0  0  0  0  0  0  0  0  0
  1  2  1  0  0  0  0 
  1  3  1  0  0  0  0 
  2  4  2  0  0  0  0 
  5  3  2  0  0  0  0 
  6  3  1  0  0  0  0 
  4  5  1  0  0  0  0 
  5  7  1  0  0  0  0 
  6  8  2  0  0  0  0 
  7  9  2  0  0  0  0 
  7 10  1  0  0  0  0 
  8 11  1  0  0  0  0 
 11 12  1  0  0  0  0 
 11 13  1  0  0  0  0 
 12 14  1  0  0  0  0 
 13 15  1  0  0  0  0 
 14 16  1  0  0  0  0 
 15 17  1  0  0  0  0 
M  END
> <Name>
1H-Imidazole-4-carboxamide, 5-(3,3-bis(2-chloroethyl)-1-triazenyl)- (9CI)

> <Source>
Smiles

> <Tox>
3.019

> <CAS>
5034-77-5

$$$$

  CDK

 19 21  0  0  0  0  0  0  0  0999 V2000
   11.0974   -0.0000    0.0000 C   0  0  0  0  0  0  0  0  0  0  0  0
   11.7682   -1.1533    0.0000 C   0  0  0  0  0  0  0  0  0  0  0  0
    9.7676   -0.0000    0.0000 C   0  0  0  0  0  0  0  0  0  0  0  0
   11.0974   -2.3066    0.0000 C   0  0  0  0  0  0  0  0  0  0  0  0
    9.1086   -1.1533    0.0000 C   0  0  0  0  0  0  0  0  0  0  0  0
    9.7676   -2.3066    0.0000 C   0  0  0  0  0  0  0  0  0  0  0  0
    7.7788   -1.1533    0.0000 C   0  0  0  0  0  0  0  0  0  0  0  0
    7.1080   -2.3066    0.0000 C   0  0  0  0  0  0  0  0  0  0  0  0
    5.7782   -2.3066    0.0000 N   0  0  0  0  0  0  0  0  0  0  0  0
    5.1192   -3.4599    0.0000 C   0  0  0  0  0  0  0  0  0  0  0  0
    5.1192   -1.1533    0.0000 C   0  0  0  0  0  0  0  0  0  0  0  0
    3.7894   -3.4599    0.0000 C   0  0  0  0  0  0  0  0  0  0  0  0
    3.7894   -1.1533    0.0000 C   0  0  0  0  0  0  0  0  0  0  0  0
    3.1186   -2.3066    0.0000 C   0  0  0  0  0  0  0  0  0  0  0  0
    2.3419   -3.3775    0.0000 O   0  0  0  0  0  0  0  0  0  0  0  0
    2.3419   -1.2357    0.0000 C   0  0  0  0  0  0  0  0  0  0  0  0
    1.0709   -2.9774    0.0000 C   0  0  0  0  0  0  0  0  0  0  0  0
    1.0709   -1.6476    0.0000 N   0  0  0  0  0  0  0  0  0  0  0  0
    0.0000   -3.7541    0.0000 O   0  0  0  0  0  0  0  0  0  0  0  0
  1  2  2  0  0  0  0 
  1  3  1  0  0  0  0 
  2  4  1  0  0  0  0 
  5  3  2  0  0  0  0 
  4  6  2  0  0  0  0 
  6  5  1  0  0  0  0 
  5  7  1  0  0  0  0 
  7  8  1  0  0  0  0 
  8  9  1  0  0  0  0 
  9 10  1  0  0  0  0 
  9 11  1  0  0  0  0 
 10 12  1  0  0  0  0 
 13 11  1  0  0  0  0 
 12 14  1  0  0  0  0 
 14 13  1  0  0  0  0 
 14 15  1  0  0  0  0 
 14 16  1  0  0  0  0 
 15 17  1  0  0  0  0 
 18 16  1  0  0  0  0 
 17 19  2  0  0  0  0 
 17 18  1  0  0  0  0 
M  END
> <Name>
1-Oxa-3,8-diazaspiro(4,5)decan-2-one, 8-(2-phenylethyl)- (9CI)

> <Source>
DSSTox2DMolFile

> <Tox>
2.424

> <CAS>
5053-06-5

$$$$

  CDK

 14 14  0  0  0  0  0  0  0  0999 V2000
   -0.6854   -2.5606    0.0000 Cl  0  0  0  0  0  0  0  0  0  0  0  0
   -0.7853   -1.7362    0.0000 C   0  0  0  0  0  0  0  0  0  0  0  0
   -0.0261   -1.3958    0.0000 C   0  0  0  0  0  0  0  0  0  0  0  0
   -1.4486   -1.2685    0.0000 C   0  0  0  0  0  0  0  0  0  0  0  0
    0.0315   -0.5731    0.0000 C   0  0  0  0  0  0  0  0  0  0  0  0
   -1.3863   -0.4477    0.0000 C   0  0  0  0  0  0  0  0  0  0  0  0
   -0.6437   -0.0820    0.0000 C   0  0  0  0  0  0  0  0  0  0  0  0
   -0.8115    0.7698    0.0000 S   0  0  0  0  0  0  0  0  0  0  0  0
   -0.2261    1.4410    0.0000 P   0  0  0  0  0  0  0  0  0  0  0  0
   -0.5410    2.2161    0.0000 S   0  0  0  0  0  0  0  0  0  0  0  0
    0.3662    0.8613    0.0000 O   0  0  0  0  0  0  0  0  0  0  0  0
    0.6267    1.5382    0.0000 O   0  0  0  0  0  0  0  0  0  0  0  0
    0.0209    0.1127    0.0000 C   0  0  0  0  0  0  0  0  0  0  0  0
    1.4489    1.3420    0.0000 C   0  0  0  0  0  0  0  0  0  0  0  0
  1  2  1  0  0  0  0 
  2  3  1  0  0  0  0 
  2  4  2  0  0  0  0 
  3  5  2  0  0  0  0 
  6  4  1  0  0  0  0 
  5  7  1  0  0  0  0 
  7  6  2  0  0  0  0 
  7  8  1  0  0  0  0 
  8  9  1  0  0  0  0 
  9 10  2  0  0  0  0 
  9 11  1  0  0  0  0 
  9 12  1  0  0  0  0 
 11 13  1  0  0  0  0 
 12 14  1  0  0  0  0 
M  END
> <Name>
Phosphorodithioic acid, S-(4-chlorophenyl) O,O-dimethyl ester

> <Source>
Smiles

> <Tox>
2.730

> <CAS>
5114-31-8

$$$$

  CDK

 19 20  0  0  0  0  0  0  0  0999 V2000
    8.0632   -0.6639    0.0000 C   0  0  0  0  0  0  0  0  0  0  0  0
    9.2111   -0.0000    0.0000 C   0  0  0  0  0  0  0  0  0  0  0  0
    8.0632   -1.9916    0.0000 C   0  0  0  0  0  0  0  0  0  0  0  0
    6.9291   -0.0000    0.0000 C   0  0  0  0  0  0  0  0  0  0  0  0
   10.3729   -0.6639    0.0000 C   0  0  0  0  0  0  0  0  0  0  0  0
    9.2111   -2.6555    0.0000 C   0  0  0  0  0  0  0  0  0  0  0  0
    5.7673   -0.6639    0.0000 C   0  0  0  0  0  0  0  0  0  0  0  0
   10.3729   -1.9916    0.0000 C   0  0  0  0  0  0  0  0  0  0  0  0
    5.7673   -1.9916    0.0000 C   0  0  0  0  0  0  0  0  0  0  0  0
    4.6194   -0.0000    0.0000 C   0  0  0  0  0  0  0  0  0  0  0  0
   11.5208   -2.6555    0.0000 N   0  0  0  0  0  0  0  0  0  0  0  0
    4.6194   -2.6555    0.0000 C   0  0  0  0  0  0  0  0  0  0  0  0
    3.4576   -0.6639    0.0000 C   0  0  0  0  0  0  0  0  0  0  0  0
   12.6826   -1.9916    0.0000 C   0  0  0  0  0  0  0  0  0  0  0  0
    3.4576   -1.9916    0.0000 C   0  0  0  0  0  0  0  0  0  0  0  0
   13.8305   -1.3277    0.0000 O   0  0  0  0  0  0  0  0  0  0  0  0
    2.3097   -2.6555    0.0000 N   0  0  0  0  0  0  0  0  0  0  0  0
    1.1479   -1.9916    0.0000 C   0  0  0  0  0  0  0  0  0  0  0  0
    0.0000   -1.3277    0.0000 O   0  0  0  0  0  0  0  0  0  0  0  0
  1  2  1  0  0  0  0 
  1  3  1  0  0  0  0 
  1  4  1  0  0  0  0 
  2  5  1  0  0  0  0 
  6  3  1  0  0  0  0 
  7  4  1  0  0  0  0 
  5  8  1  0  0  0  0 
  8  6  1  0  0  0  0 
  7  9  1  0  0  0  0 
  7 10  1  0  0  0  0 
  8 11  1  0  0  0  0 
  9 12  1  0  0  0  0 
 13 10  1  0  0  0  0 
 14 11  2  0  0  0  0 
 12 15  1  0  0  0  0 
 15 13  1  0  0  0  0 
 14 16  2  0  0  0  0 
 15 17  1  0  0  0  0 
 18 17  2  0  0  0  0 
 18 19  2  0  0  0  0 
M  END
> <Name>
Isocyanic acid, methylenedi-4,1-cyclohexylene ester

> <Source>
DSSTox2DMolFile

> <Tox>
1.423

> <CAS>
5124-30-1

$$$$

  CDK

  9  8  0  0  0  0  0  0  0  0999 V2000
    2.2805   -0.0000    0.0000 C   0  0  0  0  0  0  0  0  0  0  0  0
    1.1322   -0.6745    0.0000 C   0  0  0  0  0  0  0  0  0  0  0  0
    3.4287   -0.6745    0.0000 O   0  0  0  0  0  0  0  0  0  0  0  0
    1.1322   -1.9994    0.0000 C   0  0  0  0  0  0  0  0  0  0  0  0
    0.0000   -0.0000    0.0000 O   0  0  0  0  0  0  0  0  0  0  0  0
    4.5850   -0.0000    0.0000 C   0  0  0  0  0  0  0  0  0  0  0  0
    5.7333   -0.6745    0.0000 C   0  0  0  0  0  0  0  0  0  0  0  0
    6.8815   -0.0000    0.0000 C   0  0  0  0  0  0  0  0  0  0  0  0
    8.0298   -0.6745    0.0000 C   0  0  0  0  0  0  0  0  0  0  0  0
  1  2  1  0  0  0  0 
  1  3  1  0  0  0  0 
  2  4  1  0  0  0  0 
  2  5  1  0  0  0  0 
  3  6  1  0  0  0  0 
  6  7  1  0  0  0  0 
  7  8  1  0  0  0  0 
  8  9  1  0  0  0  0 
M  END
> <Name>
2-Propanol, 1-butoxy-

> <Source>
DSSTox2DMolFile

> <Tox>
1.421

> <CAS>
5131-66-8

$$$$

  CDK

  7  6  0  0  0  0  0  0  0  0999 V2000
    1.9922   -0.0535    0.3111 C   0  0  0  0  0  0  0  0  0  0  0  0
    0.7886   -0.9496    0.4565 C   0  0  0  0  0  0  0  0  0  0  0  0
    2.1512    0.7468   -0.5813 O   0  0  0  0  0  0  0  0  0  0  0  0
   -0.4795   -0.4497   -0.2447 C   0  0  0  0  0  0  0  0  0  0  0  0
   -1.4856   -1.5885   -0.3987 C   0  0  0  0  0  0  0  0  0  0  0  0
   -1.0204    0.5789    0.5948 O   0  0  0  0  0  0  0  0  0  0  0  0
   -1.7469    1.5635   -0.0903 C   0  0  0  0  0  0  0  0  0  0  0  0
  1  2  1  0  0  0  0 
  1  3  2  0  0  0  0 
  2  4  1  0  0  0  0 
  4  5  1  0  0  0  0 
  4  6  1  0  0  0  0 
  6  7  1  0  0  0  0 
M  END
> <Name>
Butanal, 3-methoxy- (9CI)

> <Source>
DougDB3DMolFile

> <Tox>
2.319

> <CAS>
5281-76-5

$$$$

  CDK

 18 19  0  0  0  0  0  0  0  0999 V2000
    0.0000    0.0000    0.0000 O   0  0  0  0  0  0  0  0  0  0  0  0
    0.1200   -0.1200   -1.2000 C   0  0  0  0  0  0  0  0  0  0  0  0
    0.8600    0.6800   -1.9600 O   0  0  0  0  0  0  0  0  0  0  0  0
   -0.6600   -1.2600   -1.8000 C   0  0  0  0  0  0  0  0  0  0  0  0
    1.5600    1.6400   -1.2000 C   0  0  0  0  0  0  0  0  0  0  0  0
   -0.6000   -1.5000   -3.1800 C   0  0  0  0  0  0  0  0  0  0  0  0
   -1.4200   -2.0800   -0.9800 C   0  0  0  0  0  0  0  0  0  0  0  0
    2.8600    2.0000   -1.9200 C   0  0  0  0  0  0  0  0  0  0  0  0
   -1.3200   -2.5600   -3.7400 C   0  0  0  0  0  0  0  0  0  0  0  0
   -2.1600   -3.1600   -1.5400 C   0  0  0  0  0  0  0  0  0  0  0  0
    3.9200    1.2200   -1.7000 C   0  0  0  0  0  0  0  0  0  0  0  0
   -2.1000   -3.4000   -2.9200 C   0  0  0  0  0  0  0  0  0  0  0  0
    5.2000    1.5600   -2.4000 C   0  0  0  0  0  0  0  0  0  0  0  0
    6.3600    0.7800   -2.1600 C   0  0  0  0  0  0  0  0  0  0  0  0
    5.2600    2.6400   -3.2800 C   0  0  0  0  0  0  0  0  0  0  0  0
    7.5600    1.1000   -2.8200 C   0  0  0  0  0  0  0  0  0  0  0  0
    6.4600    2.9600   -3.9400 C   0  0  0  0  0  0  0  0  0  0  0  0
    7.6000    2.2000   -3.7000 C   0  0  0  0  0  0  0  0  0  0  0  0
  1  2  2  0  0  0  0 
  2  3  1  0  0  0  0 
  2  4  1  0  0  0  0 
  3  5  1  0  0  0  0 
  4  6  2  0  0  0  0 
  4  7  1  0  0  0  0 
  5  8  1  0  0  0  0 
  6  9  1  0  0  0  0 
 10  7  2  0  0  0  0 
  8 11  2  0  0  0  0 
  9 12  2  0  0  0  0 
 12 10  1  0  0  0  0 
 11 13  1  0  0  0  0 
 13 14  2  0  0  0  0 
 13 15  1  0  0  0  0 
 14 16  1  0  0  0  0 
 17 15  2  0  0  0  0 
 16 18  2  0  0  0  0 
 18 17  1  0  0  0  0 
M  END
> <Name>
2-Propen-1-ol, 3-phenyl-, benzoate

> <Source>
NIH3DMolFile

> <Tox>
1.775

> <CAS>
5320-75-2

$$$$

  CDK

 19 20  0  0  0  0  0  0  0  0999 V2000
    7.4972    2.5990    0.0000 C   0  0  0  0  0  0  0  0  0  0  0  0
    6.9974    1.6994    0.0000 O   0  0  0  0  0  0  0  0  0  0  0  0
    5.9978    1.6994    0.0000 C   0  0  0  0  0  0  0  0  0  0  0  0
    5.4979    2.5990    0.0000 C   0  0  0  0  0  0  0  0  0  0  0  0
    5.4979    0.8497    0.0000 C   0  0  0  0  0  0  0  0  0  0  0  0
    4.4983    2.5990    0.0000 C   0  0  0  0  0  0  0  0  0  0  0  0
    5.9978    0.0000    0.0000 O   0  0  0  0  0  0  0  0  0  0  0  0
    4.4983    0.8497    0.0000 C   0  0  0  0  0  0  0  0  0  0  0  0
    3.9985    1.6994    0.0000 C   0  0  0  0  0  0  0  0  0  0  0  0
    3.9985    3.4487    0.0000 C   0  0  0  0  0  0  0  0  0  0  0  0
    6.9974    0.0000    0.0000 C   0  0  0  0  0  0  0  0  0  0  0  0
    2.9989    3.4487    0.0000 C   0  0  0  0  0  0  0  0  0  0  0  0
    2.4991    4.2984    0.0000 C   0  0  0  0  0  0  0  0  0  0  0  0
    2.4991    2.5990    0.0000 C   0  0  0  0  0  0  0  0  0  0  0  0
    2.9989    5.1981    0.0000 N   0  0  0  0  0  0  0  0  0  0  0  0
    1.4994    4.2984    0.0000 N   0  0  0  0  0  0  0  0  0  0  0  0
    1.4994    2.5990    0.0000 N   0  0  0  0  0  0  0  0  0  0  0  0
    0.9996    3.4487    0.0000 C   0  0  0  0  0  0  0  0  0  0  0  0
    0.0000    3.4487    0.0000 N   0  0  0  0  0  0  0  0  0  0  0  0
  1  2  1  0  0  0  0 
  2  3  1  0  0  0  0 
  4  3  2  0  0  0  0 
  3  5  1  0  0  0  0 
  6  4  1  0  0  0  0 
  7  5  1  0  0  0  0 
  5  8  2  0  0  0  0 
  9  6  2  0  0  0  0 
  6 10  1  0  0  0  0 
 11  7  1  0  0  0  0 
  8  9  1  0  0  0  0 
 10 12  1  0  0  0  0 
 13 12  1  0  0  0  0 
 12 14  2  0  0  0  0 
 15 13  1  0  0  0  0 
 16 13  2  0  0  0  0 
 14 17  1  0  0  0  0 
 18 16  1  0  0  0  0 
 17 18  2  0  0  0  0 
 19 18  1  0  0  0  0 
M  END
> <Name>
2,4-Pyrimidinediamine, 5-((3,4-dimethoxyphenyl)methyl)-

> <Source>
NIST2DMolFile

> <Tox>
1.850

> <CAS>
5355-16-8

$$$$

  CDK

 14 14  0  0  0  0  0  0  0  0999 V2000
    0.0004   -2.4190   -0.2251 N   0  0  0  0  0  0  0  0  0  0  0  0
   -0.0001   -1.0611   -0.0632 C   0  0  0  0  0  0  0  0  0  0  0  0
   -1.2316   -0.3273   -0.0149 C   0  0  0  0  0  0  0  0  0  0  0  0
    1.2315   -0.3273   -0.0148 C   0  0  0  0  0  0  0  0  0  0  0  0
   -1.2091    1.0692   -0.0038 C   0  0  0  0  0  0  0  0  0  0  0  0
   -2.5480   -1.0123    0.0382 N   0  0  0  0  0  0  0  0  0  0  0  0
    1.2089    1.0692   -0.0036 C   0  0  0  0  0  0  0  0  0  0  0  0
    2.5479   -1.0119    0.0384 N   0  0  0  0  0  0  0  0  0  0  0  0
   -0.0001    1.7534   -0.0122 C   0  0  0  0  0  0  0  0  0  0  0  0
   -3.5737   -0.3685    0.0524 O   0  0  0  0  0  0  0  0  0  0  0  0
   -2.5786   -2.2368    0.0756 O   0  0  0  0  0  0  0  0  0  0  0  0
    2.5787   -2.2364    0.0775 O   0  0  0  0  0  0  0  0  0  0  0  0
    3.5738   -0.3684    0.0508 O   0  0  0  0  0  0  0  0  0  0  0  0
   -0.0001    3.4408   -0.0138 Cl  0  0  0  0  0  0  0  0  0  0  0  0
  1  2  1  0  0  0  0 
  2  3  1  0  0  0  0 
  2  4  2  0  0  0  0 
  3  5  2  0  0  0  0 
  3  6  1  0  0  0  0 
  7  4  1  0  0  0  0 
  4  8  1  0  0  0  0 
  5  9  1  0  0  0  0 
  6 10  2  0  0  0  0 
  6 11  1  0  0  0  0 
  9  7  2  0  0  0  0 
  8 12  2  0  0  0  0 
  8 13  1  0  0  0  0 
  9 14  1  0  0  0  0 
M  CHG  1   6   1
M  CHG  1   8   1
M  CHG  1  11  -1
M  CHG  1  13  -1
M  END
> <Name>
Aniline, 4-chloro-2,6-dinitro- (8CI)

> <Source>
DougDB3DMolFile

> <Tox>
2.736

> <CAS>
5388-62-5

$$$$

  CDK

 13 13  0  0  0  0  0  0  0  0999 V2000
    0.7740   -1.2798   -0.2929 N   0  0  0  0  0  0  0  0  0  0  0  0
   -0.5442   -1.5320    0.3710 C   0  0  0  0  0  0  0  0  0  0  0  0
    1.6139   -0.2932    0.4303 C   0  0  0  0  0  0  0  0  0  0  0  0
   -1.4658   -0.3579    0.1507 C   0  0  0  0  0  0  0  0  0  0  0  0
   -1.1804   -2.8029   -0.1848 C   0  0  0  0  0  0  0  0  0  0  0  0
    2.9505   -0.1044   -0.2770 C   0  0  0  0  0  0  0  0  0  0  0  0
   -1.7355    0.1143   -1.1349 C   0  0  0  0  0  0  0  0  0  0  0  0
   -2.0731    0.2550    1.2483 C   0  0  0  0  0  0  0  0  0  0  0  0
    3.7882    0.9503    0.4292 C   0  0  0  0  0  0  0  0  0  0  0  0
   -2.6010    1.1872   -1.3174 C   0  0  0  0  0  0  0  0  0  0  0  0
   -2.9396    1.3261    1.0614 C   0  0  0  0  0  0  0  0  0  0  0  0
    5.1198    1.1497   -0.2588 C   0  0  0  0  0  0  0  0  0  0  0  0
   -3.2045    1.7939   -0.2211 C   0  0  0  0  0  0  0  0  0  0  0  0
  1  2  1  0  0  0  0 
  1  3  1  0  0  0  0 
  2  4  1  0  0  0  0 
  2  5  1  0  0  0  0 
  3  6  1  0  0  0  0 
  4  7  1  0  0  0  0 
  4  8  2  0  0  0  0 
  6  9  1  0  0  0  0 
  7 10  2  0  0  0  0 
 11  8  1  0  0  0  0 
  9 12  1  0  0  0  0 
 10 13  1  0  0  0  0 
 13 11  2  0  0  0  0 
M  END
> <Name>
Benzenemethanamine, N-butyl-alpha-methyl- (9CI)

> <Source>
DougDB3DMolFile

> <Tox>
2.692

> <CAS>
5412-64-6

$$$$

  CDK

 22 26  0  0  0  0  0  0  0  0999 V2000
   -4.6978    0.0418   -1.7025 O   0  0  0  0  0  0  0  0  0  0  0  0
   -4.7144    1.0728   -2.3583 C   0  0  0  0  0  0  0  0  0  0  0  0
   -3.5465    1.8432   -2.4236 N   0  0  0  0  0  0  0  0  0  0  0  0
   -5.9292    1.5316   -3.0826 C   0  0  0  0  0  0  0  0  0  0  0  0
   -3.4853    3.0242   -3.1431 C   0  0  0  0  0  0  0  0  0  0  0  0
   -2.3076    1.6385   -1.8518 C   0  0  0  0  0  0  0  0  0  0  0  0
   -5.8503    2.7398   -3.8134 C   0  0  0  0  0  0  0  0  0  0  0  0
   -7.1052    0.7826   -3.0342 C   0  0  0  0  0  0  0  0  0  0  0  0
   -2.2924    3.5749   -3.0612 N   0  0  0  0  0  0  0  0  0  0  0  0
   -4.6605    3.5073   -3.8682 C   0  0  0  0  0  0  0  0  0  0  0  0
   -1.5512    2.7339   -2.2680 C   0  0  0  0  0  0  0  0  0  0  0  0
   -1.7780    0.6338   -1.0326 C   0  0  0  0  0  0  0  0  0  0  0  0
   -6.9976    3.1874   -4.5067 C   0  0  0  0  0  0  0  0  0  0  0  0
   -8.2280    1.2344   -3.7214 C   0  0  0  0  0  0  0  0  0  0  0  0
   -4.6215    4.6972   -4.6012 C   0  0  0  0  0  0  0  0  0  0  0  0
   -0.2109    2.8475   -1.8593 C   0  0  0  0  0  0  0  0  0  0  0  0
   -0.4424    0.7627   -0.6360 C   0  0  0  0  0  0  0  0  0  0  0  0
   -6.9340    4.3850   -5.2363 C   0  0  0  0  0  0  0  0  0  0  0  0
   -8.1766    2.4246   -4.4510 C   0  0  0  0  0  0  0  0  0  0  0  0
   -5.7562    5.1320   -5.2821 C   0  0  0  0  0  0  0  0  0  0  0  0
    0.3299    1.8505   -1.0410 C   0  0  0  0  0  0  0  0  0  0  0  0
    0.1644   -0.2855    0.2382 C   0  0  0  0  0  0  0  0  0  0  0  0
  1  2  2  0  0  0  0 
  3  2  1  0  0  0  0 
  4  2  1  0  0  0  0 
  3  5  1  0  0  0  0 
  3  6  1  0  0  0  0 
  7  4  1  0  0  0  0 
  4  8  2  0  0  0  0 
  9  5  2  0  0  0  0 
  5 10  1  0  0  0  0 
  6 11  2  0  0  0  0 
  6 12  1  0  0  0  0 
  7 10  1  0  0  0  0 
  7 13  2  0  0  0  0 
  8 14  1  0  0  0  0 
  9 11  1  0  0  0  0 
 10 15  2  0  0  0  0 
 11 16  1  0  0  0  0 
 12 17  2  0  0  0  0 
 13 18  1  0  0  0  0 
 13 19  1  0  0  0  0 
 19 14  2  0  0  0  0 
 15 20  1  0  0  0  0 
 16 21  2  0  0  0  0 
 17 21  1  0  0  0  0 
 17 22  1  0  0  0  0 
 18 20  2  0  0  0  0 
M  END
> <Name>
7H-Benzimidazo(2,1-a)benz(de)isoquinolin-7-one, 10-methyl-

> <Source>
Chemidplus3DMolFile

> <Tox>
1.477

> <CAS>
5504-68-7

$$$$

  CDK

 21 23  0  0  0  0  0  0  0  0999 V2000
    0.0000    2.8828    0.0000 C   0  0  0  0  0  0  0  0  0  0  0  0
    0.0000    3.8943    0.0000 C   0  0  0  0  0  0  0  0  0  0  0  0
    0.7081    2.2253    0.0000 C   0  0  0  0  0  0  0  0  0  0  0  0
    0.7081    4.5518    0.0000 C   0  0  0  0  0  0  0  0  0  0  0  0
    1.6690    2.2253    0.0000 C   0  0  0  0  0  0  0  0  0  0  0  0
    1.6690    4.5518    0.0000 C   0  0  0  0  0  0  0  0  0  0  0  0
    2.3770    2.8828    0.0000 C   0  0  0  0  0  0  0  0  0  0  0  0
    2.3770    3.8943    0.0000 C   0  0  0  0  0  0  0  0  0  0  0  0
    3.1862    2.3770    0.0000 N   0  0  0  0  0  0  0  0  0  0  0  0
    3.9954    3.8943    0.0000 C   0  0  0  0  0  0  0  0  0  0  0  0
    3.9954    2.8828    0.0000 C   0  0  0  0  0  0  0  0  0  0  0  0
    3.1862    1.4667    0.0000 C   0  0  0  0  0  0  0  0  0  0  0  0
    4.8552    4.3495    0.0000 C   0  0  0  0  0  0  0  0  0  0  0  0
    4.8552    2.3770    0.0000 C   0  0  0  0  0  0  0  0  0  0  0  0
    3.9954    1.0115    0.0000 C   0  0  0  0  0  0  0  0  0  0  0  0
    5.7150    3.8943    0.0000 C   0  0  0  0  0  0  0  0  0  0  0  0
    5.7150    2.8828    0.0000 C   0  0  0  0  0  0  0  0  0  0  0  0
    4.8552    1.4667    0.0000 C   0  0  0  0  0  0  0  0  0  0  0  0
    5.6644    0.9609    0.0000 N   0  0  0  0  0  0  0  0  0  0  0  0
    5.6644    0.0000    0.0000 C   0  0  0  0  0  0  0  0  0  0  0  0
    6.5242    1.4161    0.0000 C   0  0  0  0  0  0  0  0  0  0  0  0
  1  2  1  0  0  0  0 
  3  1  1  0  0  0  0 
  2  4  1  0  0  0  0 
  5  3  1  0  0  0  0 
  4  6  1  0  0  0  0 
  7  5  1  0  0  0  0 
  6  8  1  0  0  0  0 
  7  8  2  0  0  0  0 
  9  7  1  0  0  0  0 
  8 10  1  0  0  0  0 
 11  9  1  0  0  0  0 
  9 12  1  0  0  0  0 
 10 11  2  0  0  0  0 
 10 13  1  0  0  0  0 
 14 11  1  0  0  0  0 
 12 15  1  0  0  0  0 
 13 16  2  0  0  0  0 
 17 14  2  0  0  0  0 
 15 18  1  0  0  0  0 
 16 17  1  0  0  0  0 
 18 19  1  0  0  0  0 
 19 20  1  0  0  0  0 
 19 21  1  0  0  0  0 
M  END
> <Name>
5H-Cyclooct(b)indole, 5-(3-(dimethylamino)propyl)-6,7,8,9,10,11-hexahydro-

> <Source>
NIST2DMolFile

> <Tox>
2.565

> <CAS>
5560-72-5

$$$$

  CDK

 18 19  0  0  0  0  0  0  0  0999 V2000
    0.0000    0.0000    0.0000 O   0  0  0  0  0  0  0  0  0  0  0  0
   -0.3000    1.0400    0.9600 S   0  0  0  0  0  0  0  0  0  0  0  0
    0.1800    0.7800    2.3000 O   0  0  0  0  0  0  0  0  0  0  0  0
    0.3400    2.6000    0.3600 C   0  0  0  0  0  0  0  0  0  0  0  0
   -2.0800    1.3000    1.0200 C   0  0  0  0  0  0  0  0  0  0  0  0
    1.8200    2.8000    0.4800 C   0  0  0  0  0  0  0  0  0  0  0  0
   -0.4200    3.8200    0.7800 N   0  0  0  0  0  0  0  0  0  0  0  0
   -2.5000    2.5400    0.2200 C   0  0  0  0  0  0  0  0  0  0  0  0
    2.3600    3.3800    1.6400 C   0  0  0  0  0  0  0  0  0  0  0  0
    2.6600    2.4200   -0.5800 C   0  0  0  0  0  0  0  0  0  0  0  0
    0.2600    5.0400    1.2400 C   0  0  0  0  0  0  0  0  0  0  0  0
   -1.8000    3.8000    0.7000 C   0  0  0  0  0  0  0  0  0  0  0  0
    3.7400    3.5600    1.7600 C   0  0  0  0  0  0  0  0  0  0  0  0
    4.0400    2.6000   -0.4600 C   0  0  0  0  0  0  0  0  0  0  0  0
   -2.4400    4.7600    1.0400 O   0  0  0  0  0  0  0  0  0  0  0  0
    4.3600    4.2600    3.2000 Cl  0  0  0  0  0  0  0  0  0  0  0  0
    4.6000    3.1800    0.7000 C   0  0  0  0  0  0  0  0  0  0  0  0
    6.3000    3.3600    0.7600 Cl  0  0  0  0  0  0  0  0  0  0  0  0
  1  2  2  0  0  0  0 
  2  3  2  0  0  0  0 
  2  4  1  0  0  0  0 
  2  5  1  0  0  0  0 
  4  6  1  0  0  0  0 
  4  7  1  0  0  0  0 
  5  8  1  0  0  0  0 
  6  9  2  0  0  0  0 
  6 10  1  0  0  0  0 
 11  7  1  0  0  0  0 
  7 12  1  0  0  0  0 
 12  8  1  0  0  0  0 
  9 13  1  0  0  0  0 
 14 10  2  0  0  0  0 
 12 15  2  0  0  0  0 
 13 16  1  0  0  0  0 
 13 17  2  0  0  0  0 
 17 14  1  0  0  0  0 
 17 18  1  0  0  0  0 
M  END
> <Name>
4H-1,3-Thiazin-4-one, 2-(3,4-dichlorophenyl)tetrahydro-3-methyl-, 1,1-dioxide

> <Source>
NIH3DMolFile

> <Tox>
2.468

> <CAS>
5571-97-1

$$$$

  CDK

 12 13  0  0  0  0  0  0  0  0999 V2000
    4.1190    0.9544    0.0000 C   0  0  0  0  0  0  0  0  0  0  0  0
    3.5665    1.8084    0.0000 N   0  0  0  0  0  0  0  0  0  0  0  0
    3.5665    0.2009    0.0000 O   0  0  0  0  0  0  0  0  0  0  0  0
    5.1739    0.9544    0.0000 O   0  0  0  0  0  0  0  0  0  0  0  0
    2.6121    1.5070    0.0000 C   0  0  0  0  0  0  0  0  0  0  0  0
    2.6121    0.5023    0.0000 C   0  0  0  0  0  0  0  0  0  0  0  0
    1.7079    2.0093    0.0000 C   0  0  0  0  0  0  0  0  0  0  0  0
    1.7079    0.0000    0.0000 C   0  0  0  0  0  0  0  0  0  0  0  0
    0.8539    1.5070    0.0000 C   0  0  0  0  0  0  0  0  0  0  0  0
    0.8539    0.5023    0.0000 C   0  0  0  0  0  0  0  0  0  0  0  0
    0.0000    1.9591    0.0000 Cl  0  0  0  0  0  0  0  0  0  0  0  0
    0.0000    0.0502    0.0000 Br  0  0  0  0  0  0  0  0  0  0  0  0
  2  1  1  0  0  0  0 
  1  3  1  0  0  0  0 
  1  4  2  0  0  0  0 
  5  2  1  0  0  0  0 
  3  6  1  0  0  0  0 
  7  5  1  0  0  0  0 
  6  5  2  0  0  0  0 
  6  8  1  0  0  0  0 
  9  7  2  0  0  0  0 
  8 10  2  0  0  0  0 
  9 11  1  0  0  0  0 
 10  9  1  0  0  0  0 
 10 12  1  0  0  0  0 
M  END
> <Name>
2(3H)-Benzoxazolone, 6-bromo-5-chloro-

> <Source>
NIST2DMolFile

> <Tox>
2.696

> <CAS>
5579-85-1

$$$$

  CDK

 18 20  0  0  0  0  0  0  0  0999 V2000
    0.0000    1.4467    0.0000 C   0  0  0  0  0  0  0  0  0  0  0  0
    1.3533    1.3067    0.0000 N   0  0  0  0  0  0  0  0  0  0  0  0
    1.9133    0.0000    0.0000 C   0  0  0  0  0  0  0  0  0  0  0  0
    2.1467    2.4267    0.0000 C   0  0  0  0  0  0  0  0  0  0  0  0
    1.7267    3.7333    0.0000 C   0  0  0  0  0  0  0  0  0  0  0  0
    3.5467    2.4267    0.0000 C   0  0  0  0  0  0  0  0  0  0  0  0
    2.8467    4.5733    0.0000 C   0  0  0  0  0  0  0  0  0  0  0  0
    4.4800    1.3533    0.0000 C   0  0  0  0  0  0  0  0  0  0  0  0
    4.0133    3.7333    0.0000 C   0  0  0  0  0  0  0  0  0  0  0  0
    2.8467    5.9733    0.0000 C   0  0  0  0  0  0  0  0  0  0  0  0
    5.8800    1.6800    0.0000 C   0  0  0  0  0  0  0  0  0  0  0  0
    5.3667    4.0600    0.0000 C   0  0  0  0  0  0  0  0  0  0  0  0
    1.6333    6.6733    0.0000 C   0  0  0  0  0  0  0  0  0  0  0  0
    4.0600    6.6733    0.0000 C   0  0  0  0  0  0  0  0  0  0  0  0
    6.3000    2.9867    0.0000 C   0  0  0  0  0  0  0  0  0  0  0  0
    1.6333    8.0733    0.0000 C   0  0  0  0  0  0  0  0  0  0  0  0
    4.0600    8.0733    0.0000 C   0  0  0  0  0  0  0  0  0  0  0  0
    2.8467    8.7267    0.0000 C   0  0  0  0  0  0  0  0  0  0  0  0
  1  2  1  0  0  0  0 
  2  3  1  0  0  0  0 
  2  4  1  0  0  0  0 
  4  5  1  0  0  0  0 
  4  6  1  0  0  0  0 
  5  7  1  0  0  0  0 
  8  6  1  0  0  0  0 
  9  6  2  0  0  0  0 
  7 10  1  0  0  0  0 
  7  9  1  0  0  0  0 
 11  8  2  0  0  0  0 
  9 12  1  0  0  0  0 
 10 13  2  0  0  0  0 
 10 14  1  0  0  0  0 
 15 11  1  0  0  0  0 
 12 15  2  0  0  0  0 
 13 16  1  0  0  0  0 
 17 14  2  0  0  0  0 
 16 18  2  0  0  0  0 
 18 17  1  0  0  0  0 
M  END
> <Name>
1H-Inden-1-amine, 2,3-dihydro-N,N-dimethyl-3-phenyl-

> <Source>
IndexNet2DMolFile

> <Tox>
3.130

> <CAS>
5581-40-8

$$$$

  CDK

 18 18  0  0  0  0  0  0  0  0999 V2000
    2.6029    2.6029    0.0000 P   0  0  0  0  0  0  0  0  0  0  0  0
    3.1035    3.4539    0.0000 O   0  0  0  0  0  0  0  0  0  0  0  0
    2.1024    1.7520    0.0000 O   0  0  0  0  0  0  0  0  0  0  0  0
    1.7520    3.1035    0.0000 O   0  0  0  0  0  0  0  0  0  0  0  0
    3.4539    2.1024    0.0000 O   0  0  0  0  0  0  0  0  0  0  0  0
    4.1046    3.4539    0.0000 C   0  0  0  0  0  0  0  0  0  0  0  0
    2.6029    0.8510    0.0000 C   0  0  0  0  0  0  0  0  0  0  0  0
    0.8510    2.6029    0.0000 C   0  0  0  0  0  0  0  0  0  0  0  0
    4.6052    4.3549    0.0000 C   0  0  0  0  0  0  0  0  0  0  0  0
    4.6052    2.6029    0.0000 N   0  0  0  0  0  0  0  0  0  0  0  0
    2.1024    0.0000    0.0000 C   0  0  0  0  0  0  0  0  0  0  0  0
    0.0000    3.1035    0.0000 C   0  0  0  0  0  0  0  0  0  0  0  0
    4.1046    5.2058    0.0000 Cl  0  0  0  0  0  0  0  0  0  0  0  0
    5.6063    4.3549    0.0000 C   0  0  0  0  0  0  0  0  0  0  0  0
    5.6063    2.6029    0.0000 C   0  0  0  0  0  0  0  0  0  0  0  0
    6.1069    3.4539    0.0000 C   0  0  0  0  0  0  0  0  0  0  0  0
    6.1069    1.7520    0.0000 Cl  0  0  0  0  0  0  0  0  0  0  0  0
    7.1080    3.4539    0.0000 Cl  0  0  0  0  0  0  0  0  0  0  0  0
  1  2  1  0  0  0  0 
  1  3  1  0  0  0  0 
  1  4  1  0  0  0  0 
  1  5  2  0  0  0  0 
  2  6  1  0  0  0  0 
  3  7  1  0  0  0  0 
  4  8  1  0  0  0  0 
  9  6  2  0  0  0  0 
  6 10  1  0  0  0  0 
  7 11  1  0  0  0  0 
  8 12  1  0  0  0  0 
  9 13  1  0  0  0  0 
 14  9  1  0  0  0  0 
 10 15  2  0  0  0  0 
 16 14  2  0  0  0  0 
 15 16  1  0  0  0  0 
 15 17  1  0  0  0  0 
 16 18  1  0  0  0  0 
M  END
> <Name>
Phosphoric acid, diethyl 3,5,6-trichloro-2-pyridinyl ester (9CI)

> <Source>
NIST2DMolFile

> <Tox>
3.394

> <CAS>
5598-15-2

$$$$

  CDK

  5  5  0  0  0  0  0  0  0  0999 V2000
    1.8610    0.0000    0.0000 C   0  0  0  0  0  0  0  0  0  0  0  0
    0.9305    0.4653    0.0000 N   0  0  0  0  0  0  0  0  0  0  0  0
    2.7916    0.4653    0.0000 C   0  0  0  0  0  0  0  0  0  0  0  0
    0.0000    0.4653    0.0000 C   0  0  0  0  0  0  0  0  0  0  0  0
    0.4653    1.3441    0.0000 C   0  0  0  0  0  0  0  0  0  0  0  0
  1  2  1  0  0  0  0 
  1  3  2  0  0  0  0 
  2  4  1  0  0  0  0 
  5  2  1  0  0  0  0 
  4  5  1  0  0  0  0 
M  END
> <Name>
Aziridine, 1-ethenyl- (9CI)

> <Source>
NIST2DMolFile

> <Tox>
2.967

> <CAS>
5628-99-9

$$$$

  CDK

  8  8  0  0  0  0  0  0  0  0999 V2000
    0.0000   -0.0000    0.0000 O   0  0  0  0  0  0  0  0  0  0  0  0
    0.6654   -1.1540    0.0000 N   0  0  0  0  0  0  0  0  0  0  0  0
    1.9962   -1.1540    0.0000 N   0  0  0  0  0  0  0  0  0  0  0  0
    2.6569   -0.0000    0.0000 C   0  0  0  0  0  0  0  0  0  0  0  0
    2.6569   -2.3033    0.0000 C   0  0  0  0  0  0  0  0  0  0  0  0
    3.9877   -0.0000    0.0000 C   0  0  0  0  0  0  0  0  0  0  0  0
    3.9877   -2.3033    0.0000 C   0  0  0  0  0  0  0  0  0  0  0  0
    4.6531   -1.1540    0.0000 N   0  0  0  0  0  0  0  0  0  0  0  0
  1  2  2  0  0  0  0 
  2  3  1  0  0  0  0 
  3  4  1  0  0  0  0 
  3  5  1  0  0  0  0 
  4  6  1  0  0  0  0 
  5  7  1  0  0  0  0 
  6  8  1  0  0  0  0 
  8  7  1  0  0  0  0 
M  END
> <Name>
Piperazine, 1-nitroso-

> <Source>
DSSTox2DMolFile

> <Tox>
1.707

> <CAS>
5632-47-3

$$$$

  CDK

 26 28  0  0  0  0  0  0  0  0999 V2000
    0.0000    1.2127    0.0000 C   0  0  0  0  0  0  0  0  0  0  0  0
    1.3526    1.2127    0.0000 C   0  0  0  0  0  0  0  0  0  0  0  0
    2.0522    2.4253    0.0000 N   0  0  0  0  0  0  0  0  0  0  0  0
    1.3526    3.6380    0.0000 C   0  0  0  0  0  0  0  0  0  0  0  0
    3.4514    2.4253    0.0000 C   0  0  0  0  0  0  0  0  0  0  0  0
    2.0522    4.8506    0.0000 C   0  0  0  0  0  0  0  0  0  0  0  0
    4.1510    3.6380    0.0000 C   0  0  0  0  0  0  0  0  0  0  0  0
    5.5503    3.6380    0.0000 O   0  0  0  0  0  0  0  0  0  0  0  0
    6.2499    2.4253    0.0000 C   0  0  0  0  0  0  0  0  0  0  0  0
    5.5503    1.2127    0.0000 C   0  0  0  0  0  0  0  0  0  0  0  0
    7.6491    2.4253    0.0000 C   0  0  0  0  0  0  0  0  0  0  0  0
    6.2499    0.0000    0.0000 C   0  0  0  0  0  0  0  0  0  0  0  0
    8.3487    1.2127    0.0000 C   0  0  0  0  0  0  0  0  0  0  0  0
    8.3487    3.6380    0.0000 N   0  0  0  0  0  0  0  0  0  0  0  0
    7.6491    0.0000    0.0000 C   0  0  0  0  0  0  0  0  0  0  0  0
    7.7890    4.9439    0.0000 C   0  0  0  0  0  0  0  0  0  0  0  0
    9.7479    3.7779    0.0000 C   0  0  0  0  0  0  0  0  0  0  0  0
    6.4364    5.2238    0.0000 C   0  0  0  0  0  0  0  0  0  0  0  0
    8.8151    5.8301    0.0000 C   0  0  0  0  0  0  0  0  0  0  0  0
   10.0278    5.1771    0.0000 C   0  0  0  0  0  0  0  0  0  0  0  0
   10.6807    2.7518    0.0000 C   0  0  0  0  0  0  0  0  0  0  0  0
   12.0800    3.0316    0.0000 C   0  0  0  0  0  0  0  0  0  0  0  0
   10.2610    1.4459    0.0000 C   0  0  0  0  0  0  0  0  0  0  0  0
   13.0128    2.0056    0.0000 C   0  0  0  0  0  0  0  0  0  0  0  0
   11.1938    0.3731    0.0000 C   0  0  0  0  0  0  0  0  0  0  0  0
   12.5464    0.6530    0.0000 C   0  0  0  0  0  0  0  0  0  0  0  0
  1  2  1  0  0  0  0 
  2  3  1  0  0  0  0 
  3  4  1  0  0  0  0 
  3  5  1  0  0  0  0 
  4  6  1  0  0  0  0 
  5  7  1  0  0  0  0 
  7  8  1  0  0  0  0 
  8  9  1  0  0  0  0 
  9 10  2  0  0  0  0 
  9 11  1  0  0  0  0 
 10 12  1  0  0  0  0 
 13 11  2  0  0  0  0 
 11 14  1  0  0  0  0 
 12 15  2  0  0  0  0 
 15 13  1  0  0  0  0 
 14 16  1  0  0  0  0 
 14 17  1  0  0  0  0 
 16 18  1  0  0  0  0 
 16 19  2  0  0  0  0 
 20 17  2  0  0  0  0 
 17 21  1  0  0  0  0 
 19 20  1  0  0  0  0 
 21 22  2  0  0  0  0 
 21 23  1  0  0  0  0 
 22 24  1  0  0  0  0 
 25 23  2  0  0  0  0 
 24 26  2  0  0  0  0 
 26 25  1  0  0  0  0 
M  END
> <Name>
Pyrrole, 1-(o-(2-(diethylamino)ethoxy)phenyl)-2-methyl-5-phenyl-

> <Source>
IndexNet2DMolFile

> <Tox>
2.697

> <CAS>
5633-16-9

$$$$

  CDK

 22 24  0  0  0  0  0  0  0  0999 V2000
    8.0397   -0.0000    0.0000 C   0  0  0  0  0  0  0  0  0  0  0  0
    8.7064   -1.1542    0.0000 C   0  0  0  0  0  0  0  0  0  0  0  0
    6.7064   -0.0000    0.0000 C   0  0  0  0  0  0  0  0  0  0  0  0
    8.0397   -2.3084    0.0000 C   0  0  0  0  0  0  0  0  0  0  0  0
    6.0497   -1.1542    0.0000 C   0  0  0  0  0  0  0  0  0  0  0  0
    6.7064   -2.3084    0.0000 C   0  0  0  0  0  0  0  0  0  0  0  0
    4.7462   -1.4328    0.0000 C   0  0  0  0  0  0  0  0  0  0  0  0
    5.8208   -3.2935    0.0000 C   0  0  0  0  0  0  0  0  0  0  0  0
    4.6069   -2.7562    0.0000 C   0  0  0  0  0  0  0  0  0  0  0  0
    6.0994   -4.5970    0.0000 C   0  0  0  0  0  0  0  0  0  0  0  0
    3.4527   -3.4228    0.0000 C   0  0  0  0  0  0  0  0  0  0  0  0
    5.1542   -5.5323    0.0000 C   0  0  0  0  0  0  0  0  0  0  0  0
    7.3830   -4.9353    0.0000 C   0  0  0  0  0  0  0  0  0  0  0  0
    2.2985   -2.7562    0.0000 C   0  0  0  0  0  0  0  0  0  0  0  0
    8.3183   -4.0000    0.0000 N   0  0  0  0  0  0  0  0  0  0  0  0
    7.7213   -6.2188    0.0000 C   0  0  0  0  0  0  0  0  0  0  0  0
    1.1542   -3.4228    0.0000 N   0  0  0  0  0  0  0  0  0  0  0  0
    9.6019   -4.3383    0.0000 C   0  0  0  0  0  0  0  0  0  0  0  0
    9.0148   -6.5671    0.0000 C   0  0  0  0  0  0  0  0  0  0  0  0
    1.1542   -4.7462    0.0000 C   0  0  0  0  0  0  0  0  0  0  0  0
    0.0000   -2.7562    0.0000 C   0  0  0  0  0  0  0  0  0  0  0  0
    9.9501   -5.6318    0.0000 C   0  0  0  0  0  0  0  0  0  0  0  0
  1  2  2  0  0  0  0 
  1  3  1  0  0  0  0 
  2  4  1  0  0  0  0 
  5  3  2  0  0  0  0 
  4  6  2  0  0  0  0 
  6  5  1  0  0  0  0 
  5  7  1  0  0  0  0 
  6  8  1  0  0  0  0 
  7  9  1  0  0  0  0 
  9  8  2  0  0  0  0 
  8 10  1  0  0  0  0 
  9 11  1  0  0  0  0 
 10 12  1  0  0  0  0 
 10 13  1  0  0  0  0 
 11 14  1  0  0  0  0 
 13 15  2  0  0  0  0 
 13 16  1  0  0  0  0 
 14 17  1  0  0  0  0 
 15 18  1  0  0  0  0 
 19 16  2  0  0  0  0 
 17 20  1  0  0  0  0 
 17 21  1  0  0  0  0 
 18 22  2  0  0  0  0 
 22 19  1  0  0  0  0 
M  END
> <Name>
1H-Indene-2-ethanamine, N,N-dimethyl-3-(1-(2-pyridinyl)ethyl)- (9CI)

> <Source>
DSSTox2DMolFile

> <Tox>
2.675

> <CAS>
5636-83-9

$$$$

  CDK

 10 10  0  0  0  0  0  0  0  0999 V2000
    5.7570   -0.0000    0.0000 C   0  0  0  0  0  0  0  0  0  0  0  0
    6.9112   -0.6635    0.0000 C   0  0  0  0  0  0  0  0  0  0  0  0
    4.6098   -0.6635    0.0000 N   0  0  0  0  0  0  0  0  0  0  0  0
    6.9112   -1.9973    0.0000 C   0  0  0  0  0  0  0  0  0  0  0  0
    4.6098   -1.9973    0.0000 C   0  0  0  0  0  0  0  0  0  0  0  0
    5.7570   -2.6608    0.0000 C   0  0  0  0  0  0  0  0  0  0  0  0
    3.4556   -2.6608    0.0000 C   0  0  0  0  0  0  0  0  0  0  0  0
    2.3014   -1.9973    0.0000 C   0  0  0  0  0  0  0  0  0  0  0  0
    1.1542   -2.6608    0.0000 N   0  0  0  0  0  0  0  0  0  0  0  0
    0.0000   -1.9973    0.0000 C   0  0  0  0  0  0  0  0  0  0  0  0
  1  2  2  0  0  0  0 
  1  3  1  0  0  0  0 
  2  4  1  0  0  0  0 
  5  3  2  0  0  0  0 
  4  6  2  0  0  0  0 
  6  5  1  0  0  0  0 
  5  7  1  0  0  0  0 
  7  8  1  0  0  0  0 
  8  9  1  0  0  0  0 
  9 10  1  0  0  0  0 
M  END
> <Name>
Pyridine, 2-(2-(methylamino)ethyl)-

> <Source>
DSSTox2DMolFile

> <Tox>
1.348

> <CAS>
5638-76-6

$$$$

  CDK

 14 15  0  0  0  0  0  0  0  0999 V2000
   -1.5881    1.9260   -0.1942 O   0  0  0  0  0  0  0  0  0  0  0  0
   -0.5778    0.9360   -0.3230 C   0  0  0  0  0  0  0  0  0  0  0  0
   -2.7044    1.3713    0.4902 C   0  0  0  0  0  0  0  0  0  0  0  0
   -1.2556   -0.3094   -0.2789 O   0  0  0  0  0  0  0  0  0  0  0  0
    0.4980    1.0665    0.7780 C   0  0  0  0  0  0  0  0  0  0  0  0
   -2.5138   -0.1494    0.3935 C   0  0  0  0  0  0  0  0  0  0  0  0
    1.7573    0.3702    0.3812 C   0  0  0  0  0  0  0  0  0  0  0  0
   -3.6176   -0.8326   -0.4350 C   0  0  0  0  0  0  0  0  0  0  0  0
    2.6010    0.9447   -0.5720 C   0  0  0  0  0  0  0  0  0  0  0  0
    2.1055   -0.8494    0.9625 C   0  0  0  0  0  0  0  0  0  0  0  0
   -3.5761   -2.2286   -0.3451 O   0  0  0  0  0  0  0  0  0  0  0  0
    3.7783    0.3042   -0.9392 C   0  0  0  0  0  0  0  0  0  0  0  0
    3.2851   -1.4867    0.5928 C   0  0  0  0  0  0  0  0  0  0  0  0
    4.1219   -0.9120   -0.3574 C   0  0  0  0  0  0  0  0  0  0  0  0
  1  2  1  0  0  0  0 
  1  3  1  0  0  0  0 
  2  4  1  0  0  0  0 
  2  5  1  0  0  0  0 
  6  3  1  0  0  0  0 
  4  6  1  0  0  0  0 
  5  7  1  0  0  0  0 
  6  8  1  0  0  0  0 
  7  9  1  0  0  0  0 
  7 10  2  0  0  0  0 
  8 11  1  0  0  0  0 
  9 12  2  0  0  0  0 
 13 10  1  0  0  0  0 
 12 14  1  0  0  0  0 
 14 13  2  0  0  0  0 
M  END
> <Name>
1,3-Dioxolane-4-methanol, 2-(phenylmethyl)-

> <Source>
DougDB3DMolFile

> <Tox>
2.053

> <CAS>
5694-72-4

$$$$

  CDK

 14 14  0  0  0  0  0  0  0  0999 V2000
   -0.8099    0.4907    0.7350 O   0  0  0  0  0  0  0  0  0  0  0  0
   -1.4904    0.2525   -0.4897 C   0  0  0  0  0  0  0  0  0  0  0  0
    0.4450    1.1118    0.5767 C   0  0  0  0  0  0  0  0  0  0  0  0
   -0.6767   -0.6714   -1.2045 O   0  0  0  0  0  0  0  0  0  0  0  0
   -2.8260   -0.4372   -0.1796 C   0  0  0  0  0  0  0  0  0  0  0  0
    1.4035    0.2642   -0.2993 C   0  0  0  0  0  0  0  0  0  0  0  0
    0.5851   -0.1531   -1.5540 C   0  0  0  0  0  0  0  0  0  0  0  0
   -3.8860    0.5767    0.2216 C   0  0  0  0  0  0  0  0  0  0  0  0
    1.9278   -0.9981    0.4570 N   0  0  0  0  0  0  0  0  0  0  0  0
    2.6003    1.1119   -0.7661 C   0  0  0  0  0  0  0  0  0  0  0  0
   -5.2083   -0.1004    0.5035 C   0  0  0  0  0  0  0  0  0  0  0  0
    1.9416   -1.0089    1.6677 O   0  0  0  0  0  0  0  0  0  0  0  0
    2.3638   -1.9229   -0.1956 O   0  0  0  0  0  0  0  0  0  0  0  0
    3.4358    1.6976    0.3506 C   0  0  0  0  0  0  0  0  0  0  0  0
  1  2  1  0  0  0  0 
  1  3  1  0  0  0  0 
  2  4  1  0  0  0  0 
  2  5  1  0  0  0  0 
  6  3  1  0  0  0  0 
  4  7  1  0  0  0  0 
  5  8  1  0  0  0  0 
  7  6  1  0  0  0  0 
  6  9  1  0  0  0  0 
  6 10  1  0  0  0  0 
  8 11  1  0  0  0  0 
  9 12  2  0  0  0  0 
  9 13  1  0  0  0  0 
 10 14  1  0  0  0  0 
M  CHG  1   9   1
M  CHG  1  13  -1
M  END
> <Name>
1,3-Dioxane, 5-ethyl-5-nitro-2-propyl- (9CI)

> <Source>
DougDB3DMolFile

> <Tox>
2.016

> <CAS>
5702-40-9

$$$$

  CDK

 13 12  0  0  0  0  0  0  0  0999 V2000
    2.0606   -2.0807   -3.5006 O   0  0  0  0  0  0  0  0  0  0  0  0
    2.1420   -1.7717   -2.1051 C   0  0  0  0  0  0  0  0  0  0  0  0
    0.8953   -2.8225   -3.8352 C   0  0  0  0  0  0  0  0  0  0  0  0
    3.3215   -1.0072   -1.8217 O   0  0  0  0  0  0  0  0  0  0  0  0
    0.9277   -0.9187   -1.7192 C   0  0  0  0  0  0  0  0  0  0  0  0
    0.9036   -3.0930   -5.3044 C   0  0  0  0  0  0  0  0  0  0  0  0
    4.5129   -1.7205   -2.1264 C   0  0  0  0  0  0  0  0  0  0  0  0
    0.8398    0.3711   -2.5215 C   0  0  0  0  0  0  0  0  0  0  0  0
   -0.0686   -2.6989   -6.1394 C   0  0  0  0  0  0  0  0  0  0  0  0
    5.6868   -0.8551   -1.8028 C   0  0  0  0  0  0  0  0  0  0  0  0
   -0.0658   -2.9719   -7.6069 C   0  0  0  0  0  0  0  0  0  0  0  0
    6.6144   -0.4926   -2.7005 C   0  0  0  0  0  0  0  0  0  0  0  0
    7.7912    0.3678   -2.3792 C   0  0  0  0  0  0  0  0  0  0  0  0
  1  2  1  0  0  0  0 
  1  3  1  0  0  0  0 
  4  2  1  0  0  0  0 
  2  5  1  0  0  0  0 
  3  6  1  0  0  0  0 
  4  7  1  0  0  0  0 
  5  8  1  0  0  0  0 
  6  9  2  0  0  0  0 
  7 10  1  0  0  0  0 
  9 11  1  0  0  0  0 
 10 12  2  0  0  0  0 
 12 13  1  0  0  0  0 
M  END
> <Name>
Propionaldehyde, di-2-butenyl acetate (7CI,8CI)

> <Source>
Chemidplus3DMolFile

> <Tox>
2.031

> <CAS>
5749-78-0

$$$$

  CDK

 13 14  0  0  0  0  0  0  0  0999 V2000
    0.0000    0.0000    0.0000 C   0  0  0  0  0  0  0  0  0  0  0  0
    0.4800    1.2200    0.7800 C   0  0  0  0  0  0  0  0  0  0  0  0
    1.0800    2.2200   -0.1000 N   0  0  0  0  0  0  0  0  0  0  0  0
    2.4600    2.3600   -0.5000 C   0  0  0  0  0  0  0  0  0  0  0  0
    0.4400    3.3200   -0.7400 C   0  0  0  0  0  0  0  0  0  0  0  0
    2.5000    3.4800   -1.3200 C   0  0  0  0  0  0  0  0  0  0  0  0
    3.5800    1.5800   -0.1800 C   0  0  0  0  0  0  0  0  0  0  0  0
    1.3000    4.0600   -1.4800 O   0  0  0  0  0  0  0  0  0  0  0  0
   -0.7400    3.5200   -0.6200 O   0  0  0  0  0  0  0  0  0  0  0  0
    3.6800    3.9200   -1.9000 C   0  0  0  0  0  0  0  0  0  0  0  0
    4.8000    2.0000   -0.7600 C   0  0  0  0  0  0  0  0  0  0  0  0
    4.8600    3.1600   -1.6000 C   0  0  0  0  0  0  0  0  0  0  0  0
    6.2400    1.1400   -0.4400 Cl  0  0  0  0  0  0  0  0  0  0  0  0
  1  2  1  0  0  0  0 
  2  3  1  0  0  0  0 
  3  4  1  0  0  0  0 
  3  5  1  0  0  0  0 
  4  6  2  0  0  0  0 
  4  7  1  0  0  0  0 
  8  5  1  0  0  0  0 
  5  9  2  0  0  0  0 
  6 10  1  0  0  0  0 
  6  8  1  0  0  0  0 
 11  7  2  0  0  0  0 
 10 12  2  0  0  0  0 
 12 11  1  0  0  0  0 
 11 13  1  0  0  0  0 
M  END
> <Name>
2-Benzoxazolinone, 5-chloro-3-ethyl-

> <Source>
NIH3DMolFile

> <Tox>
2.165

> <CAS>
5790-91-0

$$$$

  CDK

 15 16  0  0  0  0  0  0  0  0999 V2000
    0.0000    1.7700    0.0000 C   0  0  0  0  0  0  0  0  0  0  0  0
    0.2529    2.2251    0.0000 C   0  0  0  0  0  0  0  0  0  0  0  0
    1.1126    2.2251    0.0000 C   0  0  0  0  0  0  0  0  0  0  0  0
    1.3653    2.6297    0.0000 C   0  0  0  0  0  0  0  0  0  0  0  0
    1.2137    3.5398    0.0000 C   0  0  0  0  0  0  0  0  0  0  0  0
    2.0734    1.7194    0.0000 C   0  0  0  0  0  0  0  0  0  0  0  0
    2.2756    2.1239    0.0000 C   0  0  0  0  0  0  0  0  0  0  0  0
    2.5285    0.9104    0.0000 C   0  0  0  0  0  0  0  0  0  0  0  0
    3.1858    2.5791    0.0000 C   0  0  0  0  0  0  0  0  0  0  0  0
    3.4893    0.9104    0.0000 O   0  0  0  0  0  0  0  0  0  0  0  0
    2.0227    0.0507    0.0000 O   0  0  0  0  0  0  0  0  0  0  0  0
    4.0960    2.1239    0.0000 O   0  0  0  0  0  0  0  0  0  0  0  0
    3.1858    3.7421    0.0000 O   0  0  0  0  0  0  0  0  0  0  0  0
    3.9949    0.0000    0.0000 C   0  0  0  0  0  0  0  0  0  0  0  0
    4.9557    2.8825    0.0000 C   0  0  0  0  0  0  0  0  0  0  0  0
  1  2  2  0  0  0  0 
  3  1  1  0  0  0  0 
  4  2  1  0  0  0  0 
  3  5  1  0  0  0  0 
  6  3  1  0  0  0  0 
  4  5  1  0  0  0  0 
  4  7  1  0  0  0  0 
  7  6  1  0  0  0  0 
  6  8  1  1  0  0  0 
  7  9  1  1  0  0  0 
  8 10  1  0  0  0  0 
  8 11  2  0  0  0  0 
  9 12  1  0  0  0  0 
  9 13  2  0  0  0  0 
 14 10  1  0  0  0  0 
 15 12  1  0  0  0  0 
M  END
> <Name>
Bicyclo(2.2.1)hept-5-ene-2,3-dicarboxylic acid, dimethyl ester (9CI)

> <Source>
NIST2DMolFile

> <Tox>
2.323

> <CAS>
5826-73-3

$$$$

  CDK

 16 15  0  0  0  0  0  0  0  0999 V2000
    1.3798   -0.5766    0.0000 C   0  0  0  0  0  0  0  0  0  0  0  0
    0.5141   -0.8970    0.0000 C   0  0  0  0  0  0  0  0  0  0  0  0
   -0.3392   -1.0940    0.0000 S   0  0  0  0  0  0  0  0  0  0  0  0
   -0.3713   -1.9278    0.0000 O   0  0  0  0  0  0  0  0  0  0  0  0
   -1.1967   -0.8579    0.0000 C   0  0  0  0  0  0  0  0  0  0  0  0
   -1.5310   -0.0739    0.0000 S   0  0  0  0  0  0  0  0  0  0  0  0
   -1.2639    0.7555    0.0000 P   0  0  0  0  0  0  0  0  0  0  0  0
   -1.8870    1.3010    0.0000 S   0  0  0  0  0  0  0  0  0  0  0  0
   -1.9645    0.3620    0.0000 O   0  0  0  0  0  0  0  0  0  0  0  0
   -0.4158    0.6162    0.0000 O   0  0  0  0  0  0  0  0  0  0  0  0
   -1.1087    0.2767    0.0000 C   0  0  0  0  0  0  0  0  0  0  0  0
    0.4341    0.4354    0.0000 C   0  0  0  0  0  0  0  0  0  0  0  0
   -0.8575    1.1094    0.0000 C   0  0  0  0  0  0  0  0  0  0  0  0
   -0.9465   -0.5790    0.0000 C   0  0  0  0  0  0  0  0  0  0  0  0
    1.0763    1.0175    0.0000 C   0  0  0  0  0  0  0  0  0  0  0  0
    0.8547   -0.3496    0.0000 C   0  0  0  0  0  0  0  0  0  0  0  0
  1  2  1  0  0  0  0 
  2  3  1  0  0  0  0 
  3  4  2  0  0  0  0 
  3  5  1  0  0  0  0 
  5  6  1  0  0  0  0 
  6  7  1  0  0  0  0 
  7  8  2  0  0  0  0 
  7  9  1  0  0  0  0 
  7 10  1  0  0  0  0 
  9 11  1  0  0  0  0 
 10 12  1  0  0  0  0 
 11 13  1  0  0  0  0 
 11 14  1  0  0  0  0 
 12 15  1  0  0  0  0 
 12 16  1  0  0  0  0 
M  END
> <Name>
Phosphorodithioic acid, S-((ethylsulfinyl)methyl) O,O-bis(1-methyl) ester

> <Source>
Smiles

> <Tox>
4.086

> <CAS>
5827-05-4

$$$$

  CDK

 22 21  0  0  0  0  0  0  0  0999 V2000
    0.0000    0.0000    0.0000 C   0  0  0  0  0  0  0  0  0  0  0  0
   -1.3000   -1.0600    0.1400 S   0  0  0  0  0  0  0  0  0  0  0  0
   -0.2000    1.3600   -0.0400 N   0  0  0  0  0  0  0  0  0  0  0  0
    1.5000   -0.7200   -0.0600 S   0  0  0  0  0  0  0  0  0  0  0  0
   -0.4400   -2.9200    0.0000 S   0  0  0  0  0  0  0  0  0  0  0  0
    0.9200    2.3000   -0.1600 C   0  0  0  0  0  0  0  0  0  0  0  0
   -1.5800    1.8800    0.0400 C   0  0  0  0  0  0  0  0  0  0  0  0
   -0.9400   -3.7000    1.4200 C   0  0  0  0  0  0  0  0  0  0  0  0
   -1.7200   -2.7200    2.5400 S   0  0  0  0  0  0  0  0  0  0  0  0
   -0.7000   -5.0400    1.6000 N   0  0  0  0  0  0  0  0  0  0  0  0
   -0.0200   -5.8000    0.5400 C   0  0  0  0  0  0  0  0  0  0  0  0
    0.5600   -7.1000    1.0800 C   0  0  0  0  0  0  0  0  0  0  0  0
   -0.5000   -8.1200    1.2400 N   0  0  0  0  0  0  0  0  0  0  0  0
   -0.1400   -9.4200    1.4600 C   0  0  0  0  0  0  0  0  0  0  0  0
   -1.3000  -10.6400    1.6200 S   0  0  0  0  0  0  0  0  0  0  0  0
    1.4600   -9.9400    1.5800 S   0  0  0  0  0  0  0  0  0  0  0  0
   -0.2200  -12.3200    1.9800 S   0  0  0  0  0  0  0  0  0  0  0  0
   -1.3600  -13.5600    1.9000 C   0  0  0  0  0  0  0  0  0  0  0  0
   -1.0000  -14.8600    2.1200 N   0  0  0  0  0  0  0  0  0  0  0  0
   -2.9200  -13.0800    1.5600 S   0  0  0  0  0  0  0  0  0  0  0  0
   -2.0200  -15.9200    2.0600 C   0  0  0  0  0  0  0  0  0  0  0  0
    0.4000  -15.2400    2.4200 C   0  0  0  0  0  0  0  0  0  0  0  0
  1  2  1  0  0  0  0 
  1  3  1  0  0  0  0 
  1  4  2  0  0  0  0 
  2  5  1  0  0  0  0 
  3  6  1  0  0  0  0 
  3  7  1  0  0  0  0 
  5  8  1  0  0  0  0 
  8  9  2  0  0  0  0 
  8 10  1  0  0  0  0 
 10 11  1  0  0  0  0 
 11 12  1  0  0  0  0 
 12 13  1  0  0  0  0 
 13 14  1  0  0  0  0 
 14 15  1  0  0  0  0 
 14 16  2  0  0  0  0 
 15 17  1  0  0  0  0 
 17 18  1  0  0  0  0 
 18 19  1  0  0  0  0 
 18 20  2  0  0  0  0 
 19 21  1  0  0  0  0 
 19 22  1  0  0  0  0 
M  END
> <Name>
2,3,10,11-Tetrathia-5,8-diazadodecanedithioamide, N,N,N',N'-tetramethyl-4,9-dithioxo- (9CI)

> <Source>
NIH3DMolFile

> <Tox>
2.177

> <CAS>
5836-23-7

$$$$

  CDK

 15 14  0  0  0  0  0  0  0  0999 V2000
    9.7013    3.4981    0.0000 S   0  0  0  0  0  0  0  0  0  0  0  0
    9.7013    2.0988    0.0000 P   0  0  0  0  0  0  0  0  0  0  0  0
    8.4886    1.3992    0.0000 S   0  0  0  0  0  0  0  0  0  0  0  0
   11.0539    1.7257    0.0000 O   0  0  0  0  0  0  0  0  0  0  0  0
   10.6807    1.1194    0.0000 O   0  0  0  0  0  0  0  0  0  0  0  0
    7.2760    2.0988    0.0000 C   0  0  0  0  0  0  0  0  0  0  0  0
   12.0333    2.7052    0.0000 C   0  0  0  0  0  0  0  0  0  0  0  0
   12.0333    1.4925    0.0000 C   0  0  0  0  0  0  0  0  0  0  0  0
    6.0633    1.3992    0.0000 C   0  0  0  0  0  0  0  0  0  0  0  0
    4.8506    2.0988    0.0000 N   0  0  0  0  0  0  0  0  0  0  0  0
    3.6380    1.3992    0.0000 C   0  0  0  0  0  0  0  0  0  0  0  0
    2.4253    2.0988    0.0000 O   0  0  0  0  0  0  0  0  0  0  0  0
    3.6380    0.0000    0.0000 O   0  0  0  0  0  0  0  0  0  0  0  0
    1.2127    1.3992    0.0000 C   0  0  0  0  0  0  0  0  0  0  0  0
    0.0000    2.0988    0.0000 C   0  0  0  0  0  0  0  0  0  0  0  0
  1  2  2  0  0  0  0 
  2  3  1  0  0  0  0 
  2  4  1  0  0  0  0 
  2  5  1  0  0  0  0 
  3  6  1  0  0  0  0 
  4  7  1  0  0  0  0 
  5  8  1  0  0  0  0 
  6  9  1  0  0  0  0 
  9 10  1  0  0  0  0 
 10 11  1  0  0  0  0 
 11 12  1  0  0  0  0 
 11 13  2  0  0  0  0 
 12 14  1  0  0  0  0 
 14 15  1  0  0  0  0 
M  END
> <Name>
Carbamic acid, N-(2-(O,O-dimethylphosphorodithioyl)ethyl)-, ethyl ester

> <Source>
IndexNet2DMolFile

> <Tox>
3.403

> <CAS>
5840-95-9

$$$$

  CDK

 17 17  0  0  0  0  0  0  0  0999 V2000
    0.3319   -1.4624    0.0000 C   0  0  0  0  0  0  0  0  0  0  0  0
   -0.4931   -1.4624    0.0000 C   0  0  0  0  0  0  0  0  0  0  0  0
   -1.3181   -1.4624    0.0000 C   0  0  0  0  0  0  0  0  0  0  0  0
   -0.4931   -2.2874    0.0000 C   0  0  0  0  0  0  0  0  0  0  0  0
   -0.4931   -0.6374    0.0000 C   0  0  0  0  0  0  0  0  0  0  0  0
    0.2214   -0.2249    0.0000 C   0  0  0  0  0  0  0  0  0  0  0  0
   -1.2075   -0.2249    0.0000 C   0  0  0  0  0  0  0  0  0  0  0  0
    0.2214    0.6001    0.0000 C   0  0  0  0  0  0  0  0  0  0  0  0
   -1.2075    0.6001    0.0000 C   0  0  0  0  0  0  0  0  0  0  0  0
    0.9359    1.0126    0.0000 Cl  0  0  0  0  0  0  0  0  0  0  0  0
   -0.4931    1.0126    0.0000 C   0  0  0  0  0  0  0  0  0  0  0  0
   -0.4931    1.8376    0.0000 O   0  0  0  0  0  0  0  0  0  0  0  0
    0.2214    2.2501    0.0000 P   0  0  0  0  0  0  0  0  0  0  0  0
   -0.1911    2.9646    0.0000 S   0  0  0  0  0  0  0  0  0  0  0  0
    0.6339    1.5356    0.0000 N   0  0  0  0  0  0  0  0  0  0  0  0
    0.9359    2.6626    0.0000 O   0  0  0  0  0  0  0  0  0  0  0  0
    1.6503    2.2501    0.0000 C   0  0  0  0  0  0  0  0  0  0  0  0
  1  2  1  0  0  0  0 
  2  3  1  0  0  0  0 
  2  4  1  0  0  0  0 
  2  5  1  0  0  0  0 
  5  6  1  0  0  0  0 
  5  7  2  0  0  0  0 
  6  8  2  0  0  0  0 
  9  7  1  0  0  0  0 
  8 10  1  0  0  0  0 
  8 11  1  0  0  0  0 
 11  9  2  0  0  0  0 
 11 12  1  0  0  0  0 
 12 13  1  0  0  0  0 
 13 14  2  0  0  0  0 
 13 15  1  0  0  0  0 
 13 16  1  0  0  0  0 
 16 17  1  0  0  0  0 
M  END
> <Name>
Phosphoramidothioic acid, O-(2-chloro-4-(1,1-dimethylethyl)phenyl) O-methyl ester

> <Source>
Smiles

> <Tox>
2.554

> <CAS>
5902-52-3

$$$$

  CDK

 27 26  0  0  0  0  0  0  0  0999 V2000
   12.1059    0.5002    0.0000 C   0  0  0  0  0  0  0  0  0  0  0  0
   11.2555    0.0000    0.0000 N   0  0  0  0  0  0  0  0  0  0  0  0
   13.0064    0.0000    0.0000 C   0  0  0  0  0  0  0  0  0  0  0  0
   10.4051    0.5002    0.0000 C   0  0  0  0  0  0  0  0  0  0  0  0
   13.8568    0.5002    0.0000 C   0  0  0  0  0  0  0  0  0  0  0  0
    9.5047    0.0000    0.0000 C   0  0  0  0  0  0  0  0  0  0  0  0
   14.7072    0.0000    0.0000 C   0  0  0  0  0  0  0  0  0  0  0  0
    8.6542    0.5002    0.0000 C   0  0  0  0  0  0  0  0  0  0  0  0
   15.6076    0.5002    0.0000 C   0  0  0  0  0  0  0  0  0  0  0  0
    7.8038    0.0000    0.0000 C   0  0  0  0  0  0  0  0  0  0  0  0
   16.4581    0.0000    0.0000 C   0  0  0  0  0  0  0  0  0  0  0  0
    6.9034    0.5002    0.0000 C   0  0  0  0  0  0  0  0  0  0  0  0
   17.3085    0.5002    0.0000 C   0  0  0  0  0  0  0  0  0  0  0  0
    6.0530    0.0000    0.0000 C   0  0  0  0  0  0  0  0  0  0  0  0
   18.2089    0.0000    0.0000 C   0  0  0  0  0  0  0  0  0  0  0  0
    5.2025    0.5002    0.0000 C   0  0  0  0  0  0  0  0  0  0  0  0
   19.0593    0.5002    0.0000 C   0  0  0  0  0  0  0  0  0  0  0  0
    4.3021    0.0000    0.0000 C   0  0  0  0  0  0  0  0  0  0  0  0
   19.9097    0.0000    0.0000 C   0  0  0  0  0  0  0  0  0  0  0  0
    3.4517    0.5002    0.0000 C   0  0  0  0  0  0  0  0  0  0  0  0
   20.8102    0.5002    0.0000 C   0  0  0  0  0  0  0  0  0  0  0  0
    2.6013    0.0000    0.0000 C   0  0  0  0  0  0  0  0  0  0  0  0
   21.6606    0.0000    0.0000 C   0  0  0  0  0  0  0  0  0  0  0  0
    1.7008    0.5002    0.0000 C   0  0  0  0  0  0  0  0  0  0  0  0
   22.5110    0.5002    0.0000 C   0  0  0  0  0  0  0  0  0  0  0  0
    0.8504    0.0000    0.0000 C   0  0  0  0  0  0  0  0  0  0  0  0
    0.0000    0.5002    0.0000 C   0  0  0  0  0  0  0  0  0  0  0  0
  1  2  1  0  0  0  0 
  1  3  1  0  0  0  0 
  2  4  1  0  0  0  0 
  3  5  1  0  0  0  0 
  4  6  1  0  0  0  0 
  5  7  1  0  0  0  0 
  6  8  1  0  0  0  0 
  7  9  1  0  0  0  0 
  8 10  1  0  0  0  0 
  9 11  1  0  0  0  0 
 10 12  1  0  0  0  0 
 11 13  1  0  0  0  0 
 12 14  1  0  0  0  0 
 13 15  1  0  0  0  0 
 14 16  1  0  0  0  0 
 15 17  1  0  0  0  0 
 16 18  1  0  0  0  0 
 17 19  1  0  0  0  0 
 18 20  1  0  0  0  0 
 19 21  1  0  0  0  0 
 20 22  1  0  0  0  0 
 21 23  1  0  0  0  0 
 22 24  1  0  0  0  0 
 23 25  1  0  0  0  0 
 24 26  1  0  0  0  0 
 26 27  1  0  0  0  0 
M  END
> <Name>
1-Tridecanamine, N-tridecyl-

> <Source>
NIST2DMolFile

> <Tox>
1.666

> <CAS>
5910-75-8

$$$$

  CDK

 27 28  0  0  0  0  0  0  0  0999 V2000
   -1.4667    1.7888   -0.2237 C   0  0  0  0  0  0  0  0  0  0  0  0
   -2.4969    0.7099   -0.1989 C   0  0  0  0  0  0  0  0  0  0  0  0
   -1.7258    2.9876   -0.1993 O   0  0  0  0  0  0  0  0  0  0  0  0
   -0.1136    1.3951   -0.2189 N   0  0  0  0  0  0  0  0  0  0  0  0
   -3.7941    1.0273    0.2119 C   0  0  0  0  0  0  0  0  0  0  0  0
   -2.1955   -0.5952   -0.5817 C   0  0  0  0  0  0  0  0  0  0  0  0
    0.9819    2.3743   -0.4150 C   0  0  0  0  0  0  0  0  0  0  0  0
   -4.7850    0.0469    0.2350 C   0  0  0  0  0  0  0  0  0  0  0  0
   -3.1710   -1.5861   -0.5643 C   0  0  0  0  0  0  0  0  0  0  0  0
    2.3002    1.6673   -0.4252 C   0  0  0  0  0  0  0  0  0  0  0  0
   -4.4737   -1.2822   -0.1603 C   0  0  0  0  0  0  0  0  0  0  0  0
   -6.0714    0.2634    0.6842 O   0  0  0  0  0  0  0  0  0  0  0  0
    2.9972    1.4646    0.7642 C   0  0  0  0  0  0  0  0  0  0  0  0
    2.8456    1.2163   -1.6307 C   0  0  0  0  0  0  0  0  0  0  0  0
   -5.5217   -2.1682   -0.1156 O   0  0  0  0  0  0  0  0  0  0  0  0
   -6.5418    1.6083    0.6031 C   0  0  0  0  0  0  0  0  0  0  0  0
    4.2249    0.8114    0.7656 C   0  0  0  0  0  0  0  0  0  0  0  0
    4.0678    0.5637   -1.6509 C   0  0  0  0  0  0  0  0  0  0  0  0
   -5.2305   -3.5331   -0.4020 C   0  0  0  0  0  0  0  0  0  0  0  0
   -7.7818    1.6885    1.4717 C   0  0  0  0  0  0  0  0  0  0  0  0
    4.7603    0.3589   -0.4448 C   0  0  0  0  0  0  0  0  0  0  0  0
   -6.5330   -4.2904   -0.2237 C   0  0  0  0  0  0  0  0  0  0  0  0
    5.9542   -0.3076   -0.5995 O   0  0  0  0  0  0  0  0  0  0  0  0
    6.7404   -0.5096    0.5707 C   0  0  0  0  0  0  0  0  0  0  0  0
    8.0258   -1.1918    0.0912 C   0  0  0  0  0  0  0  0  0  0  0  0
    8.8985   -1.4747    1.2590 N   0  0  0  0  0  0  0  0  0  0  0  0
   10.1960   -2.0588    0.8790 C   0  0  0  0  0  0  0  0  0  0  0  0
  1  2  1  0  0  0  0 
  1  3  2  0  0  0  0 
  1  4  1  0  0  0  0 
  2  5  1  0  0  0  0 
  2  6  2  0  0  0  0 
  4  7  1  0  0  0  0 
  5  8  2  0  0  0  0 
  9  6  1  0  0  0  0 
  7 10  1  0  0  0  0 
  8 11  1  0  0  0  0 
  8 12  1  0  0  0  0 
 11  9  2  0  0  0  0 
 10 13  1  0  0  0  0 
 10 14  2  0  0  0  0 
 11 15  1  0  0  0  0 
 12 16  1  0  0  0  0 
 13 17  2  0  0  0  0 
 18 14  1  0  0  0  0 
 15 19  1  0  0  0  0 
 16 20  1  0  0  0  0 
 17 21  1  0  0  0  0 
 21 18  2  0  0  0  0 
 19 22  1  0  0  0  0 
 21 23  1  0  0  0  0 
 23 24  1  0  0  0  0 
 24 25  1  0  0  0  0 
 25 26  1  0  0  0  0 
 26 27  1  0  0  0  0 
M  END
> <Name>
Benzamide, 3,4-diethoxy-N-(((4-(2-methylamino)ethoxy)phenyl)methyl)- (9CI)

> <Source>
DougDB3DMolFile

> <Tox>
2.094

> <CAS>
5936-70-9

$$$$

  CDK

 23 25  0  0  0  0  0  0  0  0999 V2000
    4.3824    0.5037    0.0000 C   0  0  0  0  0  0  0  0  0  0  0  0
    4.3824    1.4608    0.0000 C   0  0  0  0  0  0  0  0  0  0  0  0
    5.2387    0.0000    0.0000 C   0  0  0  0  0  0  0  0  0  0  0  0
    3.4757    0.0000    0.0000 C   0  0  0  0  0  0  0  0  0  0  0  0
    5.2387    1.9645    0.0000 C   0  0  0  0  0  0  0  0  0  0  0  0
    6.0447    0.5037    0.0000 C   0  0  0  0  0  0  0  0  0  0  0  0
    2.6194    0.5037    0.0000 C   0  0  0  0  0  0  0  0  0  0  0  0
    6.0447    1.4608    0.0000 C   0  0  0  0  0  0  0  0  0  0  0  0
    5.2387    2.9216    0.0000 O   0  0  0  0  0  0  0  0  0  0  0  0
    6.9514    0.0000    0.0000 O   0  0  0  0  0  0  0  0  0  0  0  0
    1.7630    0.0000    0.0000 C   0  0  0  0  0  0  0  0  0  0  0  0
    6.9514    1.9645    0.0000 C   0  0  0  0  0  0  0  0  0  0  0  0
    7.8077    0.5037    0.0000 C   0  0  0  0  0  0  0  0  0  0  0  0
    0.8563    0.5037    0.0000 C   0  0  0  0  0  0  0  0  0  0  0  0
    7.8077    1.4608    0.0000 C   0  0  0  0  0  0  0  0  0  0  0  0
    6.9514    2.9720    0.0000 C   0  0  0  0  0  0  0  0  0  0  0  0
    8.7144    0.0000    0.0000 C   0  0  0  0  0  0  0  0  0  0  0  0
    8.7648    0.9067    0.0000 C   0  0  0  0  0  0  0  0  0  0  0  0
    0.0000    0.0000    0.0000 C   0  0  0  0  0  0  0  0  0  0  0  0
    8.7144    1.9645    0.0000 C   0  0  0  0  0  0  0  0  0  0  0  0
    7.8077    3.5261    0.0000 C   0  0  0  0  0  0  0  0  0  0  0  0
    8.7144    2.9720    0.0000 C   0  0  0  0  0  0  0  0  0  0  0  0
    7.8077    4.4831    0.0000 C   0  0  0  0  0  0  0  0  0  0  0  0
  1  2  2  0  0  0  0 
  3  1  1  0  0  0  0 
  1  4  1  0  0  0  0 
  2  5  1  0  0  0  0 
  6  3  2  0  0  0  0 
  4  7  1  0  0  0  0 
  5  8  2  0  0  0  0 
  5  9  1  0  0  0  0 
  6  8  1  0  0  0  0 
 10  6  1  0  0  0  0 
  7 11  1  0  0  0  0 
  8 12  1  0  0  0  0 
 13 10  1  0  0  0  0 
 14 11  1  0  0  0  0 
 15 12  1  0  0  0  0 
 12 16  1  0  0  0  0 
 15 13  1  0  0  0  0 
 13 17  1  0  0  0  0 
 13 18  1  0  0  0  0 
 19 14  1  0  0  0  0 
 20 15  1  0  0  0  0 
 16 21  1  0  0  0  0 
 22 20  1  0  0  0  0 
 21 22  2  0  0  0  0 
 21 23  1  0  0  0  0 
M  END
> <Name>
6H-Dibenzo(b,d)pyran-1-ol, 6a,7,10,10a-tetrahydro-6,6,9-trimethyl-3-pentyl-, trans-(-)- (8CI)

> <Source>
NIST2DMolFile

> <Tox>
2.563

> <CAS>
5957-75-5

$$$$

  CDK

 10  9  0  0  0  0  0  0  0  0999 V2000
   -3.0060   -0.3963   -0.0527 O   0  0  0  0  0  0  0  0  0  0  0  0
   -2.0248    0.4455    0.5558 C   0  0  0  0  0  0  0  0  0  0  0  0
   -0.7401   -0.3593    0.7272 C   0  0  0  0  0  0  0  0  0  0  0  0
   -2.6543    1.0916    1.8039 C   0  0  0  0  0  0  0  0  0  0  0  0
   -0.3072   -0.7687   -0.5715 O   0  0  0  0  0  0  0  0  0  0  0  0
   -0.7618   -1.5997    1.6398 C   0  0  0  0  0  0  0  0  0  0  0  0
   -1.8488    1.4822    2.6941 O   0  0  0  0  0  0  0  0  0  0  0  0
   -3.9160    1.1796    1.7778 O   0  0  0  0  0  0  0  0  0  0  0  0
    0.0223   -2.5368    1.3227 O   0  0  0  0  0  0  0  0  0  0  0  0
   -1.5520   -1.5218    2.6248 O   0  0  0  0  0  0  0  0  0  0  0  0
  1  2  1  0  0  0  0 
  2  3  1  0  0  0  0 
  2  4  1  0  0  0  0 
  5  3  1  0  0  0  0 
  3  6  1  0  0  0  0 
  7  4  1  0  0  0  0 
  8  4  2  0  0  0  0 
  9  6  1  0  0  0  0 
 10  6  2  0  0  0  0 
M  CHG  1   7  -1
M  CHG  1   9  -1
M  END
> <Name>
Butanedioic acid, 2,3-dihydroxy-, ion(2-), (R*,S*)- (9CI)

> <Source>
Chemidplus3DMolFile

> <Tox>
1.494

> <CAS>
5976-95-4

$$$$

  CDK

 10 10  0  0  0  0  0  0  0  0999 V2000
    0.0000   -0.0000    0.0000 C   0  0  0  0  0  0  0  0  0  0  0  0
    0.6640   -1.1546    0.0000 C   0  0  0  0  0  0  0  0  0  0  0  0
    0.0000   -2.3031    0.0000 C   0  0  0  0  0  0  0  0  0  0  0  0
    1.9921   -1.1546    0.0000 C   0  0  0  0  0  0  0  0  0  0  0  0
    2.6561   -0.0000    0.0000 C   0  0  0  0  0  0  0  0  0  0  0  0
    2.6561   -2.3031    0.0000 C   0  0  0  0  0  0  0  0  0  0  0  0
    3.9901   -0.0000    0.0000 C   0  0  0  0  0  0  0  0  0  0  0  0
    3.9901   -2.3031    0.0000 C   0  0  0  0  0  0  0  0  0  0  0  0
    4.6542   -1.1546    0.0000 C   0  0  0  0  0  0  0  0  0  0  0  0
    5.9822   -1.1546    0.0000 C   0  0  0  0  0  0  0  0  0  0  0  0
  1  2  1  0  0  0  0 
  2  3  2  0  0  0  0 
  4  2  1  6  0  0  0 
  4  5  1  0  0  0  0 
  4  6  1  0  0  0  0 
  5  7  1  0  0  0  0 
  8  6  1  0  0  0  0 
  7  9  1  0  0  0  0 
  9  8  2  0  0  0  0 
  9 10  1  0  0  0  0 
M  END
> <Name>
Cyclohexene, 1-methyl-4-(1-methylethenyl)-, (theta)-

> <Source>
DSSTox2DMolFile

> <Tox>
1.491

> <CAS>
5989-27-5

$$$$

  CDK

 20 21  0  0  0  0  0  0  0  0999 V2000
   -0.0030    1.0286    0.5270 C   0  0  0  0  0  0  0  0  0  0  0  0
   -1.3701    0.3888    0.3020 C   0  0  0  0  0  0  0  0  0  0  0  0
    1.0947   -0.0145    0.3294 C   0  0  0  0  0  0  0  0  0  0  0  0
    0.1046    2.2123   -0.4872 C   0  0  0  0  0  0  0  0  0  0  0  0
    0.0250    1.5295    1.8570 O   0  0  0  0  0  0  0  0  0  0  0  0
   -1.5510   -0.4909   -0.7696 C   0  0  0  0  0  0  0  0  0  0  0  0
   -2.4562    0.6902    1.1269 C   0  0  0  0  0  0  0  0  0  0  0  0
    1.4398   -0.8665    1.3817 C   0  0  0  0  0  0  0  0  0  0  0  0
    1.7444   -0.1513   -0.8998 C   0  0  0  0  0  0  0  0  0  0  0  0
    1.2510    2.9813   -0.1640 O   0  0  0  0  0  0  0  0  0  0  0  0
   -2.7904   -1.0673   -1.0130 C   0  0  0  0  0  0  0  0  0  0  0  0
   -3.6999    0.1139    0.8914 C   0  0  0  0  0  0  0  0  0  0  0  0
    2.4285   -1.8288    1.2140 C   0  0  0  0  0  0  0  0  0  0  0  0
    2.7334   -1.1102   -1.0764 C   0  0  0  0  0  0  0  0  0  0  0  0
    1.3163    4.2098   -0.8754 C   0  0  0  0  0  0  0  0  0  0  0  0
   -3.8614   -0.7620   -0.1772 C   0  0  0  0  0  0  0  0  0  0  0  0
    3.0724   -1.9445   -0.0146 C   0  0  0  0  0  0  0  0  0  0  0  0
    2.6030    4.8959   -0.4582 C   0  0  0  0  0  0  0  0  0  0  0  0
   -5.3679   -1.4603   -0.4647 Cl  0  0  0  0  0  0  0  0  0  0  0  0
    4.2732   -3.1084   -0.2207 Cl  0  0  0  0  0  0  0  0  0  0  0  0
  1  2  1  0  0  0  0 
  1  3  1  0  0  0  0 
  1  4  1  0  0  0  0 
  1  5  1  0  0  0  0 
  2  6  1  0  0  0  0 
  2  7  2  0  0  0  0 
  3  8  1  0  0  0  0 
  3  9  2  0  0  0  0 
  4 10  1  0  0  0  0 
  6 11  2  0  0  0  0 
 12  7  1  0  0  0  0 
  8 13  2  0  0  0  0 
 14  9  1  0  0  0  0 
 10 15  1  0  0  0  0 
 11 16  1  0  0  0  0 
 16 12  2  0  0  0  0 
 13 17  1  0  0  0  0 
 17 14  2  0  0  0  0 
 15 18  1  0  0  0  0 
 16 19  1  0  0  0  0 
 17 20  1  0  0  0  0 
M  END
> <Name>
Benzenemethanol, 4-chloro-alpha-(4-chlorophenyl)-alpha-(ethoxymethyl)- (9CI)

> <Source>
DougDB3DMolFile

> <Tox>
1.794

> <CAS>
6012-83-5

$$$$

  CDK

  9  9  0  0  0  0  0  0  0  0999 V2000
    1.2426   -0.7077    0.0000 C   0  0  0  0  0  0  0  0  0  0  0  0
    0.7178    0.5629    0.0000 C   0  0  0  0  0  0  0  0  0  0  0  0
   -0.0001   -1.9201    0.0000 S   0  0  0  0  0  0  0  0  0  0  0  0
    2.8603   -1.0365    0.0000 Cl  0  0  0  0  0  0  0  0  0  0  0  0
   -0.7179    0.5630    0.0000 C   0  0  0  0  0  0  0  0  0  0  0  0
    1.6086    1.9535    0.0000 Cl  0  0  0  0  0  0  0  0  0  0  0  0
   -1.2427   -0.7076    0.0000 C   0  0  0  0  0  0  0  0  0  0  0  0
   -1.6084    1.9537    0.0000 Cl  0  0  0  0  0  0  0  0  0  0  0  0
   -2.8605   -1.0364    0.0000 Cl  0  0  0  0  0  0  0  0  0  0  0  0
  1  2  2  0  0  0  0 
  1  3  1  0  0  0  0 
  1  4  1  0  0  0  0 
  2  5  1  0  0  0  0 
  2  6  1  0  0  0  0 
  7  3  1  0  0  0  0 
  5  7  2  0  0  0  0 
  5  8  1  0  0  0  0 
  7  9  1  0  0  0  0 
M  END
> <Name>
Thiophene, 2,3,4,5-tetrachloro-

> <Source>
DougDB3DMolFile

> <Tox>
3.501

> <CAS>
6012-97-1

$$$$

  CDK

 14 14  0  0  0  0  0  0  0  0999 V2000
    1.0106    0.9601    0.0000 P   0  0  0  0  0  0  0  0  0  0  0  0
    2.0213    0.9096    0.0000 O   0  0  0  0  0  0  0  0  0  0  0  0
    1.0106    1.9708    0.0000 O   0  0  0  0  0  0  0  0  0  0  0  0
    0.0000    0.9601    0.0000 O   0  0  0  0  0  0  0  0  0  0  0  0
    0.9601    0.0000    0.0000 O   0  0  0  0  0  0  0  0  0  0  0  0
    2.5266    1.8192    0.0000 C   0  0  0  0  0  0  0  0  0  0  0  0
    3.5373    1.8192    0.0000 C   0  0  0  0  0  0  0  0  0  0  0  0
    2.0213    2.6782    0.0000 C   0  0  0  0  0  0  0  0  0  0  0  0
    3.9921    0.9096    0.0000 C   0  0  0  0  0  0  0  0  0  0  0  0
    3.9921    2.6782    0.0000 C   0  0  0  0  0  0  0  0  0  0  0  0
    2.5266    3.5373    0.0000 C   0  0  0  0  0  0  0  0  0  0  0  0
    3.5878    0.0505    0.0000 O   0  0  0  0  0  0  0  0  0  0  0  0
    5.0027    0.9601    0.0000 O   0  0  0  0  0  0  0  0  0  0  0  0
    3.5878    3.5373    0.0000 C   0  0  0  0  0  0  0  0  0  0  0  0
  1  2  1  0  0  0  0 
  1  3  2  0  0  0  0 
  1  4  1  0  0  0  0 
  1  5  1  0  0  0  0 
  2  6  1  0  0  0  0 
  6  7  2  0  0  0  0 
  8  6  1  0  0  0  0 
  7  9  1  0  0  0  0 
  7 10  1  0  0  0  0 
 11  8  2  0  0  0  0 
  9 12  2  0  0  0  0 
  9 13  1  0  0  0  0 
 10 14  2  0  0  0  0 
 14 11  1  0  0  0  0 
M  END
> <Name>
Benzoic acid, 2-(phosphonooxy)- (9CI)

> <Source>
NIST2DMolFile

> <Tox>
2.296

> <CAS>
6064-83-1

$$$$

  CDK

 22 22  0  0  0  0  0  0  0  0999 V2000
   -1.0081   -2.6161    0.0000 C   0  0  0  0  0  0  0  0  0  0  0  0
   -1.0081   -1.7911    0.0000 C   0  0  0  0  0  0  0  0  0  0  0  0
   -1.0081   -0.9661    0.0000 C   0  0  0  0  0  0  0  0  0  0  0  0
   -0.1831   -0.9661    0.0000 C   0  0  0  0  0  0  0  0  0  0  0  0
   -1.0081   -0.1411    0.0000 C   0  0  0  0  0  0  0  0  0  0  0  0
   -0.2937    0.2714    0.0000 C   0  0  0  0  0  0  0  0  0  0  0  0
   -1.7226    0.2714    0.0000 C   0  0  0  0  0  0  0  0  0  0  0  0
    0.4208   -0.1411    0.0000 O   0  0  0  0  0  0  0  0  0  0  0  0
   -0.2937    1.0964    0.0000 C   0  0  0  0  0  0  0  0  0  0  0  0
   -1.7226    1.0964    0.0000 C   0  0  0  0  0  0  0  0  0  0  0  0
    1.1353    0.2714    0.0000 C   0  0  0  0  0  0  0  0  0  0  0  0
    0.4208    1.5089    0.0000 N   0  0  0  0  0  0  0  0  0  0  0  0
   -1.0081    1.5089    0.0000 C   0  0  0  0  0  0  0  0  0  0  0  0
   -2.4371    1.5089    0.0000 N   0  0  0  0  0  0  0  0  0  0  0  0
    1.1353    1.0964    0.0000 O   0  0  0  0  0  0  0  0  0  0  0  0
    1.8498   -0.1411    0.0000 S   0  0  0  0  0  0  0  0  0  0  0  0
    0.4208    2.3339    0.0000 O   0  0  0  0  0  0  0  0  0  0  0  0
    0.8333    0.7944    0.0000 O   0  0  0  0  0  0  0  0  0  0  0  0
   -3.1515    1.0964    0.0000 O   0  0  0  0  0  0  0  0  0  0  0  0
   -2.4371    2.3339    0.0000 O   0  0  0  0  0  0  0  0  0  0  0  0
    2.5642    0.2714    0.0000 C   0  0  0  0  0  0  0  0  0  0  0  0
    3.2787    0.6839    0.0000 C   0  0  0  0  0  0  0  0  0  0  0  0
  1  2  1  0  0  0  0 
  2  3  1  0  0  0  0 
  3  4  1  0  0  0  0 
  3  5  1  0  0  0  0 
  5  6  1  0  0  0  0 
  5  7  2  0  0  0  0 
  6  8  1  0  0  0  0 
  6  9  2  0  0  0  0 
 10  7  1  0  0  0  0 
  8 11  1  0  0  0  0 
  9 12  1  0  0  0  0 
  9 13  1  0  0  0  0 
 13 10  2  0  0  0  0 
 10 14  1  0  0  0  0 
 11 15  2  0  0  0  0 
 11 16  1  0  0  0  0 
 12 17  2  0  0  0  0 
 12 18  2  0  0  0  0 
 14 19  2  0  0  0  0 
 14 20  2  0  0  0  0 
 16 21  1  0  0  0  0 
 21 22  1  0  0  0  0 
M  END
> <Name>
Carbonic acid, thio-, O-(2-sec-butyl-4,6-dinitrophenyl) S-ethyl ester

> <Source>
Smiles

> <Tox>
3.349

> <CAS>
6074-15-3

$$$$

  CDK

 22 24  0  0  0  0  0  0  0  0999 V2000
    3.6266    0.2152   -1.7534 O   0  0  0  0  0  0  0  0  0  0  0  0
    2.8512   -0.7278   -1.8104 C   0  0  0  0  0  0  0  0  0  0  0  0
    2.8253   -1.8248   -2.6846 N   0  0  0  0  0  0  0  0  0  0  0  0
    1.7630   -0.9783   -0.7930 C   0  0  0  0  0  0  0  0  0  0  0  0
    1.6987   -2.6420   -2.4229 N   0  0  0  0  0  0  0  0  0  0  0  0
    3.9764   -2.2519   -3.4135 C   0  0  0  0  0  0  0  0  0  0  0  0
    0.7987    0.1920   -0.7240 C   0  0  0  0  0  0  0  0  0  0  0  0
    1.0668   -2.2439   -1.2347 C   0  0  0  0  0  0  0  0  0  0  0  0
    1.0384   -3.4387   -3.4071 C   0  0  0  0  0  0  0  0  0  0  0  0
    4.9489   -1.3244   -3.7937 C   0  0  0  0  0  0  0  0  0  0  0  0
    4.1344   -3.5986   -3.7483 C   0  0  0  0  0  0  0  0  0  0  0  0
    0.0921    0.4184   -2.0603 C   0  0  0  0  0  0  0  0  0  0  0  0
    0.0898   -2.7124   -0.6693 O   0  0  0  0  0  0  0  0  0  0  0  0
    0.0498   -4.3485   -3.0248 C   0  0  0  0  0  0  0  0  0  0  0  0
    1.3779   -3.3111   -4.7561 C   0  0  0  0  0  0  0  0  0  0  0  0
    6.0737   -1.7414   -4.5055 C   0  0  0  0  0  0  0  0  0  0  0  0
    5.2593   -4.0155   -4.4599 C   0  0  0  0  0  0  0  0  0  0  0  0
   -0.8520    1.6085   -1.9994 C   0  0  0  0  0  0  0  0  0  0  0  0
   -0.5955   -5.1265   -3.9860 C   0  0  0  0  0  0  0  0  0  0  0  0
    0.7324   -4.0892   -5.7172 C   0  0  0  0  0  0  0  0  0  0  0  0
    6.2289   -3.0869   -4.8385 C   0  0  0  0  0  0  0  0  0  0  0  0
   -0.2543   -4.9968   -5.3321 C   0  0  0  0  0  0  0  0  0  0  0  0
  1  2  2  0  0  0  0 
  3  2  1  0  0  0  0 
  4  2  1  0  0  0  0 
  3  5  1  0  0  0  0 
  3  6  1  0  0  0  0 
  4  7  1  0  0  0  0 
  4  8  1  0  0  0  0 
  5  8  1  0  0  0  0 
  5  9  1  0  0  0  0 
  6 10  2  0  0  0  0 
  6 11  1  0  0  0  0 
  7 12  1  0  0  0  0 
 13  8  2  0  0  0  0 
  9 14  2  0  0  0  0 
  9 15  1  0  0  0  0 
 10 16  1  0  0  0  0 
 11 17  2  0  0  0  0 
 12 18  1  0  0  0  0 
 14 19  1  0  0  0  0 
 15 20  2  0  0  0  0 
 16 21  2  0  0  0  0 
 17 21  1  0  0  0  0 
 19 22  2  0  0  0  0 
 20 22  1  0  0  0  0 
M  END
> <Name>
3,5-Pyrazolidinedione, 1,2-diphenyl-4-propyl-

> <Source>
Chemidplus3DMolFile

> <Tox>
2.745

> <CAS>
6082-56-0

$$$$

  CDK

 12 13  0  0  0  0  0  0  0  0999 V2000
    1.5008    1.5508    0.0000 C   0  0  0  0  0  0  0  0  0  0  0  0
    0.5003    1.5508    0.0000 C   0  0  0  0  0  0  0  0  0  0  0  0
    2.0010    2.4513    0.0000 C   0  0  0  0  0  0  0  0  0  0  0  0
    0.0000    2.4513    0.0000 C   0  0  0  0  0  0  0  0  0  0  0  0
    1.5008    3.3017    0.0000 C   0  0  0  0  0  0  0  0  0  0  0  0
    2.9515    2.4513    0.0000 C   0  0  0  0  0  0  0  0  0  0  0  0
    0.5003    3.3017    0.0000 C   0  0  0  0  0  0  0  0  0  0  0  0
    3.4518    1.5508    0.0000 N   0  0  0  0  0  0  0  0  0  0  0  0
    4.5524    1.3007    0.0000 C   0  0  0  0  0  0  0  0  0  0  0  0
    2.9515    0.7504    0.0000 N   0  0  0  0  0  0  0  0  0  0  0  0
    4.5524    0.4002    0.0000 N   0  0  0  0  0  0  0  0  0  0  0  0
    3.6519    0.0000    0.0000 C   0  0  0  0  0  0  0  0  0  0  0  0
  2  1  2  0  0  0  0 
  1  3  1  0  0  0  0 
  4  2  1  0  0  0  0 
  3  5  2  0  0  0  0 
  3  6  1  0  0  0  0 
  7  4  2  0  0  0  0 
  5  7  1  0  0  0  0 
  6  8  1  0  0  0  0 
  9  8  1  0  0  0  0 
  8 10  1  0  0  0  0 
 11  9  2  0  0  0  0 
 10 12  2  0  0  0  0 
 12 11  1  0  0  0  0 
M  END
> <Name>
1H-1,2,4-Triazole, 1-benzyl-

> <Source>
NIST2DMolFile

> <Tox>
2.345

> <CAS>
6085-94-5

$$$$

  CDK

  8  7  0  0  0  0  0  0  0  0999 V2000
    1.7058    1.5553    0.0000 N   0  0  0  0  0  0  0  0  0  0  0  0
    2.6089    1.0536    0.0000 N   0  0  0  0  0  0  0  0  0  0  0  0
    0.8529    1.0034    0.0000 N   0  0  0  0  0  0  0  0  0  0  0  0
    3.4618    1.5051    0.0000 N   0  0  0  0  0  0  0  0  0  0  0  0
    0.8529    0.0000    0.0000 C   0  0  0  0  0  0  0  0  0  0  0  0
    0.0000    1.5051    0.0000 C   0  0  0  0  0  0  0  0  0  0  0  0
    3.4618    2.5086    0.0000 C   0  0  0  0  0  0  0  0  0  0  0  0
    4.3148    1.0034    0.0000 C   0  0  0  0  0  0  0  0  0  0  0  0
  1  2  2  0  0  0  0 
  1  3  1  0  0  0  0 
  2  4  1  0  0  0  0 
  3  5  1  0  0  0  0 
  3  6  1  0  0  0  0 
  4  7  1  0  0  0  0 
  4  8  1  0  0  0  0 
M  END
> <Name>
2-Tetrazene, 1,1,4,4-tetramethyl-

> <Source>
NIST2DMolFile

> <Tox>
1.920

> <CAS>
6130-87-6

$$$$

  CDK

 11 11  0  0  0  0  0  0  0  0999 V2000
    2.6234    0.5045    0.0000 C   0  0  0  0  0  0  0  0  0  0  0  0
    2.6234    1.4630    0.0000 C   0  0  0  0  0  0  0  0  0  0  0  0
    1.7657    0.0000    0.0000 C   0  0  0  0  0  0  0  0  0  0  0  0
    1.7657    1.9675    0.0000 C   0  0  0  0  0  0  0  0  0  0  0  0
    3.4306    1.9675    0.0000 C   0  0  0  0  0  0  0  0  0  0  0  0
    0.8576    0.5045    0.0000 C   0  0  0  0  0  0  0  0  0  0  0  0
    0.8576    1.4630    0.0000 C   0  0  0  0  0  0  0  0  0  0  0  0
    4.2882    1.4630    0.0000 C   0  0  0  0  0  0  0  0  0  0  0  0
    3.4306    2.9765    0.0000 O   0  0  0  0  0  0  0  0  0  0  0  0
    0.0000    0.0000    0.0000 O   0  0  0  0  0  0  0  0  0  0  0  0
    5.1963    2.0180    0.0000 Cl  0  0  0  0  0  0  0  0  0  0  0  0
  2  1  2  0  0  0  0 
  1  3  1  0  0  0  0 
  4  2  1  0  0  0  0 
  2  5  1  0  0  0  0 
  3  6  2  0  0  0  0 
  7  4  2  0  0  0  0 
  5  8  1  0  0  0  0 
  5  9  2  0  0  0  0 
  6  7  1  0  0  0  0 
  6 10  1  0  0  0  0 
 11  8  1  0  0  0  0 
M  END
> <Name>
Acetophenone, 2-chloro-4'-hydroxy- (6CI,7CI)

> <Source>
NIST2DMolFile

> <Tox>
2.870

> <CAS>
6305-04-0

$$$$

  CDK

  7  6  0  0  0  0  0  0  0  0999 V2000
    3.3292   -2.3053    0.0000 C   0  0  0  0  0  0  0  0  0  0  0  0
    2.6586   -1.1557    0.0000 S   0  0  0  0  0  0  0  0  0  0  0  0
    4.6585   -2.3053    0.0000 S   0  0  0  0  0  0  0  0  0  0  0  0
    1.3293   -1.1557    0.0000 C   0  0  0  0  0  0  0  0  0  0  0  0
    5.3232   -1.1557    0.0000 C   0  0  0  0  0  0  0  0  0  0  0  0
    0.0000   -1.1557    0.0000 N   0  0  0  0  0  0  0  0  0  0  0  0
    5.9878   -0.0000    0.0000 N   0  0  0  0  0  0  0  0  0  0  0  0
  1  2  1  0  0  0  0 
  1  3  1  0  0  0  0 
  2  4  1  0  0  0  0 
  3  5  1  0  0  0  0 
  4  6  3  0  0  0  0 
  5  7  3  0  0  0  0 
M  END
> <Name>
Thiocyanic acid, methylene ester

> <Source>
DSSTox2DMolFile

> <Tox>
3.374

> <CAS>
6317-18-6

$$$$

  CDK

 16 15  0  0  0  0  0  0  0  0999 V2000
    5.1376   -1.3329    0.0000 P   0  0  0  0  0  0  0  0  0  0  0  0
    6.4706   -1.3329    0.0000 O   0  0  0  0  0  0  0  0  0  0  0  0
    5.1376   -0.0000    0.0000 O   0  0  0  0  0  0  0  0  0  0  0  0
    5.1376   -2.6659    0.0000 O   0  0  0  0  0  0  0  0  0  0  0  0
    3.8047   -1.3329    0.0000 C   0  0  0  0  0  0  0  0  0  0  0  0
    3.1318   -2.4588    0.0000 N   0  0  0  0  0  0  0  0  0  0  0  0
    1.7988   -2.4588    0.0000 C   0  0  0  0  0  0  0  0  0  0  0  0
    3.7918   -3.6300    0.0000 C   0  0  0  0  0  0  0  0  0  0  0  0
    1.1388   -1.3006    0.0000 P   0  0  0  0  0  0  0  0  0  0  0  0
    3.0994   -4.7688    0.0000 P   0  0  0  0  0  0  0  0  0  0  0  0
    0.4982   -0.1424    0.0000 O   0  0  0  0  0  0  0  0  0  0  0  0
    0.0000   -1.9735    0.0000 O   0  0  0  0  0  0  0  0  0  0  0  0
    2.2971   -0.6406    0.0000 O   0  0  0  0  0  0  0  0  0  0  0  0
    2.4265   -5.9076    0.0000 O   0  0  0  0  0  0  0  0  0  0  0  0
    4.2576   -5.4417    0.0000 O   0  0  0  0  0  0  0  0  0  0  0  0
    1.9735   -4.0765    0.0000 O   0  0  0  0  0  0  0  0  0  0  0  0
  1  2  2  0  0  0  0 
  1  3  1  0  0  0  0 
  1  4  1  0  0  0  0 
  1  5  1  0  0  0  0 
  6  5  1  0  0  0  0 
  6  7  1  0  0  0  0 
  6  8  1  0  0  0  0 
  9  7  1  0  0  0  0 
 10  8  1  0  0  0  0 
  9 11  2  0  0  0  0 
  9 12  1  0  0  0  0 
  9 13  1  0  0  0  0 
 10 14  2  0  0  0  0 
 10 15  1  0  0  0  0 
 10 16  1  0  0  0  0 
M  END
> <Name>
Phosphonic acid, (nitrilotris(methylene))tris-

> <Source>
DSSTox2DMolFile

> <Tox>
2.154

> <CAS>
6419-19-8

$$$$

  CDK

 11 10  0  0  0  0  0  0  0  0999 V2000
    3.4474   -2.0009    0.0000 C   0  0  0  0  0  0  0  0  0  0  0  0
    4.6046   -1.3259    0.0000 C   0  0  0  0  0  0  0  0  0  0  0  0
    2.2983   -1.3259    0.0000 O   0  0  0  0  0  0  0  0  0  0  0  0
    4.6046   -0.0000    0.0000 C   0  0  0  0  0  0  0  0  0  0  0  0
    5.7377   -2.0009    0.0000 O   0  0  0  0  0  0  0  0  0  0  0  0
    1.1491   -2.0009    0.0000 N   0  0  0  0  0  0  0  0  0  0  0  0
    6.8868   -1.3259    0.0000 N   0  0  0  0  0  0  0  0  0  0  0  0
    0.0000   -1.3259    0.0000 O   0  0  0  0  0  0  0  0  0  0  0  0
    1.1491   -3.3269    0.0000 O   0  0  0  0  0  0  0  0  0  0  0  0
    8.0359   -2.0009    0.0000 O   0  0  0  0  0  0  0  0  0  0  0  0
    6.8868   -0.0000    0.0000 O   0  0  0  0  0  0  0  0  0  0  0  0
  1  2  1  0  0  0  0 
  1  3  1  0  0  0  0 
  2  4  1  0  0  0  0 
  2  5  1  0  0  0  0 
  3  6  1  0  0  0  0 
  5  7  1  0  0  0  0 
  6  8  1  0  0  0  0 
  6  9  2  0  0  0  0 
  7 10  1  0  0  0  0 
  7 11  2  0  0  0  0 
M  CHG  1   6   1
M  CHG  1   7   1
M  CHG  1   8  -1
M  CHG  1  10  -1
M  END
> <Name>
1,2-Propanediol, dinitrate

> <Source>
DSSTox2DMolFile

> <Tox>
2.822

> <CAS>
6423-43-4

$$$$

  CDK

 16 15  0  0  0  0  0  0  0  0999 V2000
    3.4438   -0.0609    0.0000 C   0  0  0  0  0  0  0  0  0  0  0  0
    2.6430   -0.2590    0.0000 C   0  0  0  0  0  0  0  0  0  0  0  0
    1.8421   -0.4572    0.0000 O   0  0  0  0  0  0  0  0  0  0  0  0
    1.2701    0.1373    0.0000 C   0  0  0  0  0  0  0  0  0  0  0  0
    1.4989    0.9299    0.0000 O   0  0  0  0  0  0  0  0  0  0  0  0
    0.4692   -0.0609    0.0000 C   0  0  0  0  0  0  0  0  0  0  0  0
    0.6674   -0.8617    0.0000 C   0  0  0  0  0  0  0  0  0  0  0  0
   -0.3316   -0.2590    0.0000 C   0  0  0  0  0  0  0  0  0  0  0  0
   -1.1325   -0.4572    0.0000 Si  0  0  0  0  0  0  0  0  0  0  0  0
   -0.9343   -1.2581    0.0000 C   0  0  0  0  0  0  0  0  0  0  0  0
   -1.3306    0.3436    0.0000 O   0  0  0  0  0  0  0  0  0  0  0  0
   -1.9333   -0.6554    0.0000 O   0  0  0  0  0  0  0  0  0  0  0  0
   -0.7361    0.9157    0.0000 C   0  0  0  0  0  0  0  0  0  0  0  0
   -2.5053   -0.0609    0.0000 C   0  0  0  0  0  0  0  0  0  0  0  0
   -0.1417    1.4877    0.0000 C   0  0  0  0  0  0  0  0  0  0  0  0
   -3.0774    0.5336    0.0000 C   0  0  0  0  0  0  0  0  0  0  0  0
  1  2  1  0  0  0  0 
  2  3  1  0  0  0  0 
  3  4  1  0  0  0  0 
  4  5  2  0  0  0  0 
  4  6  1  0  0  0  0 
  6  7  1  0  0  0  0 
  6  8  1  0  0  0  0 
  8  9  1  0  0  0  0 
  9 10  1  0  0  0  0 
  9 11  1  0  0  0  0 
  9 12  1  0  0  0  0 
 11 13  1  0  0  0  0 
 12 14  1  0  0  0  0 
 13 15  1  0  0  0  0 
 14 16  1  0  0  0  0 
M  END
> <Name>
Acetic acid, (dioctylstannylene)di(thio)di-, diisooctyl ester (8CI)

> <Source>
Smiles

> <Tox>
1.048

> <CAS>
6449-52-1

$$$$

  CDK

 20 21  0  0  0  0  0  0  0  0999 V2000
    4.2744   -3.5133    0.0000 N   0  0  0  0  0  0  0  0  0  0  0  0
    5.2231   -4.4516    0.0000 C   0  0  0  0  0  0  0  0  0  0  0  0
    4.6184   -2.2206    0.0000 C   0  0  0  0  0  0  0  0  0  0  0  0
    2.9921   -3.8574    0.0000 C   0  0  0  0  0  0  0  0  0  0  0  0
    6.5263   -4.1701    0.0000 C   0  0  0  0  0  0  0  0  0  0  0  0
    5.9112   -1.8766    0.0000 O   0  0  0  0  0  0  0  0  0  0  0  0
    3.6801   -1.2823    0.0000 N   0  0  0  0  0  0  0  0  0  0  0  0
    2.0538   -2.9087    0.0000 C   0  0  0  0  0  0  0  0  0  0  0  0
    2.6480   -5.1397    0.0000 O   0  0  0  0  0  0  0  0  0  0  0  0
    6.9328   -2.9087    0.0000 C   0  0  0  0  0  0  0  0  0  0  0  0
    4.0242   -0.0000    0.0000 C   0  0  0  0  0  0  0  0  0  0  0  0
    2.3978   -1.6264    0.0000 C   0  0  0  0  0  0  0  0  0  0  0  0
    0.7298   -2.9816    0.0000 N   0  0  0  0  0  0  0  0  0  0  0  0
    8.2360   -2.6376    0.0000 C   0  0  0  0  0  0  0  0  0  0  0  0
    1.2823   -0.9070    0.0000 N   0  0  0  0  0  0  0  0  0  0  0  0
    0.0000   -4.0972    0.0000 C   0  0  0  0  0  0  0  0  0  0  0  0
    0.2502   -1.7410    0.0000 C   0  0  0  0  0  0  0  0  0  0  0  0
    9.1222   -3.6176    0.0000 C   0  0  0  0  0  0  0  0  0  0  0  0
   10.4253   -3.3465    0.0000 C   0  0  0  0  0  0  0  0  0  0  0  0
    8.7156   -4.8895    0.0000 O   0  0  0  0  0  0  0  0  0  0  0  0
  1  2  1  0  0  0  0 
  1  3  1  0  0  0  0 
  1  4  1  0  0  0  0 
  2  5  1  0  0  0  0 
  3  6  2  0  0  0  0 
  3  7  1  0  0  0  0 
  8  4  1  0  0  0  0 
  4  9  2  0  0  0  0 
  5 10  1  0  0  0  0 
  7 11  1  0  0  0  0 
  7 12  1  0  0  0  0 
 12  8  2  0  0  0  0 
  8 13  1  0  0  0  0 
 10 14  1  0  0  0  0 
 12 15  1  0  0  0  0 
 13 16  1  0  0  0  0 
 13 17  1  0  0  0  0 
 14 18  1  0  0  0  0 
 17 15  2  0  0  0  0 
 18 19  1  0  0  0  0 
 18 20  2  0  0  0  0 
M  END
> <Name>
1H-Purine-2,6-dione, 3,7-dihydro-3,7-dimethyl-1-(5-oxohexyl)-

> <Source>
DSSTox2DMolFile

> <Tox>
2.376

> <CAS>
6493-05-6

$$$$

  CDK

 12 11  0  0  0  0  0  0  0  0999 V2000
   -0.0007   -0.6014   -0.3311 N   0  0  0  0  0  0  0  0  0  0  0  0
   -0.9845    0.3197   -0.3387 C   0  0  0  0  0  0  0  0  0  0  0  0
    1.3298   -0.2563   -0.8379 C   0  0  0  0  0  0  0  0  0  0  0  0
   -0.2292   -1.7854    0.1272 N   0  0  0  0  0  0  0  0  0  0  0  0
   -2.2065    0.0028    0.1266 O   0  0  0  0  0  0  0  0  0  0  0  0
   -0.7681    1.4355   -0.7655 O   0  0  0  0  0  0  0  0  0  0  0  0
    2.1846    0.2929    0.3061 C   0  0  0  0  0  0  0  0  0  0  0  0
    0.6599   -2.6178    0.1341 O   0  0  0  0  0  0  0  0  0  0  0  0
   -3.2664    0.9952    0.1184 C   0  0  0  0  0  0  0  0  0  0  0  0
    3.5742    0.6534   -0.2231 C   0  0  0  0  0  0  0  0  0  0  0  0
   -4.5435    0.3822    0.6964 C   0  0  0  0  0  0  0  0  0  0  0  0
    4.4289    1.2026    0.9209 C   0  0  0  0  0  0  0  0  0  0  0  0
  1  2  1  0  0  0  0 
  1  3  1  0  0  0  0 
  1  4  1  0  0  0  0 
  2  5  1  0  0  0  0 
  2  6  2  0  0  0  0 
  3  7  1  0  0  0  0 
  4  8  2  0  0  0  0 
  5  9  1  0  0  0  0 
  7 10  1  0  0  0  0 
  9 11  1  0  0  0  0 
 10 12  1  0  0  0  0 
M  END
> <Name>
Carbamic acid, butylnitroso-, ethyl ester (8CI)(9CI)

> <Source>
NIH3DMolFile

> <Tox>
2.287

> <CAS>
6558-78-7

$$$$

  CDK

 14 15  0  0  0  0  0  0  0  0999 V2000
   -1.3549   -0.4194   -0.3933 C   0  0  0  0  0  0  0  0  0  0  0  0
   -0.6878   -1.6051   -0.1918 C   0  0  0  0  0  0  0  0  0  0  0  0
   -0.6730    0.8187   -0.1948 C   0  0  0  0  0  0  0  0  0  0  0  0
   -2.7767   -0.4612   -0.8253 C   0  0  0  0  0  0  0  0  0  0  0  0
    0.6618   -1.6146    0.2087 C   0  0  0  0  0  0  0  0  0  0  0  0
    0.6838    0.8091    0.2025 C   0  0  0  0  0  0  0  0  0  0  0  0
   -1.3221    2.0704   -0.3884 C   0  0  0  0  0  0  0  0  0  0  0  0
   -3.7480   -1.3021    0.4139 Cl  0  0  0  0  0  0  0  0  0  0  0  0
    1.3473   -0.4385    0.4045 C   0  0  0  0  0  0  0  0  0  0  0  0
    1.3515    2.0514    0.3931 C   0  0  0  0  0  0  0  0  0  0  0  0
   -0.6548    3.2478   -0.1971 C   0  0  0  0  0  0  0  0  0  0  0  0
    2.7696   -0.5004    0.8322 C   0  0  0  0  0  0  0  0  0  0  0  0
    0.7021    3.2382    0.1984 C   0  0  0  0  0  0  0  0  0  0  0  0
    3.7310   -1.3163   -0.4318 Cl  0  0  0  0  0  0  0  0  0  0  0  0
  1  2  1  0  0  0  0 
  1  3  2  0  0  0  0 
  1  4  1  0  0  0  0 
  2  5  2  0  0  0  0 
  6  3  1  0  0  0  0 
  7  3  1  0  0  0  0 
  4  8  1  0  0  0  0 
  5  9  1  0  0  0  0 
  9  6  2  0  0  0  0 
  6 10  1  0  0  0  0 
 11  7  2  0  0  0  0 
  9 12  1  0  0  0  0 
 10 13  2  0  0  0  0 
 13 11  1  0  0  0  0 
 12 14  1  0  0  0  0 
M  END
> <Name>
Naphthalene, 1,4-bis(chloromethyl)-

> <Source>
DougDB3DMolFile

> <Tox>
2.051

> <CAS>
6586-89-6

$$$$

  CDK

 14 15  0  0  0  0  0  0  0  0999 V2000
    2.4488    0.7033    0.0000 N   0  0  0  0  0  0  0  0  0  0  0  0
    1.6392    1.2915    0.0000 C   0  0  0  0  0  0  0  0  0  0  0  0
    3.2586    1.2915    0.0000 C   0  0  0  0  0  0  0  0  0  0  0  0
    0.6681    1.0838    0.0000 C   0  0  0  0  0  0  0  0  0  0  0  0
    1.9497    2.2405    0.0000 C   0  0  0  0  0  0  0  0  0  0  0  0
    2.9503    2.2436    0.0000 N   0  0  0  0  0  0  0  0  0  0  0  0
    4.2121    0.9811    0.0000 C   0  0  0  0  0  0  0  0  0  0  0  0
    0.0000    1.8207    0.0000 C   0  0  0  0  0  0  0  0  0  0  0  0
    1.2838    2.9814    0.0000 C   0  0  0  0  0  0  0  0  0  0  0  0
    4.4200    0.0000    0.0000 F   0  0  0  0  0  0  0  0  0  0  0  0
    4.9577    1.6516    0.0000 F   0  0  0  0  0  0  0  0  0  0  0  0
    3.6655    0.1403    0.0000 F   0  0  0  0  0  0  0  0  0  0  0  0
    0.3072    2.7749    0.0000 C   0  0  0  0  0  0  0  0  0  0  0  0
    1.5945    3.9348    0.0000 Br  0  0  0  0  0  0  0  0  0  0  0  0
  1  2  1  0  0  0  0 
  3  1  1  0  0  0  0 
  2  4  1  0  0  0  0 
  2  5  2  0  0  0  0 
  6  3  2  0  0  0  0 
  3  7  1  0  0  0  0 
  4  8  2  0  0  0  0 
  9  5  1  0  0  0  0 
  5  6  1  0  0  0  0 
  7 10  1  0  0  0  0 
  7 11  1  0  0  0  0 
  7 12  1  0  0  0  0 
  8 13  1  0  0  0  0 
 13  9  2  0  0  0  0 
  9 14  1  0  0  0  0 
M  END
> <Name>
Benzimidazole, 4-bromo-2-(trifluoromethyl)-

> <Source>
NIST2DMolFile

> <Tox>
3.976

> <CAS>
6587-23-1

$$$$

  CDK

 17 17  0  0  0  0  0  0  0  0999 V2000
    0.9983   -2.8019    0.0000 C   0  0  0  0  0  0  0  0  0  0  0  0
    0.9983   -1.9769    0.0000 C   0  0  0  0  0  0  0  0  0  0  0  0
    0.9983   -1.1519    0.0000 O   0  0  0  0  0  0  0  0  0  0  0  0
    0.2838   -0.7394    0.0000 P   0  0  0  0  0  0  0  0  0  0  0  0
    0.6963   -0.0250    0.0000 S   0  0  0  0  0  0  0  0  0  0  0  0
   -0.1287   -1.4539    0.0000 C   0  0  0  0  0  0  0  0  0  0  0  0
   -0.4307   -0.3269    0.0000 O   0  0  0  0  0  0  0  0  0  0  0  0
   -0.5412   -2.1684    0.0000 C   0  0  0  0  0  0  0  0  0  0  0  0
   -0.4307    0.4981    0.0000 C   0  0  0  0  0  0  0  0  0  0  0  0
    0.2838    0.9106    0.0000 C   0  0  0  0  0  0  0  0  0  0  0  0
   -1.1451    0.9106    0.0000 C   0  0  0  0  0  0  0  0  0  0  0  0
    0.2838    1.7356    0.0000 C   0  0  0  0  0  0  0  0  0  0  0  0
   -1.1451    1.7356    0.0000 C   0  0  0  0  0  0  0  0  0  0  0  0
   -0.4307    2.1481    0.0000 C   0  0  0  0  0  0  0  0  0  0  0  0
   -0.4307    2.9731    0.0000 S   0  0  0  0  0  0  0  0  0  0  0  0
   -1.1451    3.3856    0.0000 O   0  0  0  0  0  0  0  0  0  0  0  0
    0.2838    3.3856    0.0000 C   0  0  0  0  0  0  0  0  0  0  0  0
  1  2  1  0  0  0  0 
  2  3  1  0  0  0  0 
  3  4  1  0  0  0  0 
  4  5  2  0  0  0  0 
  4  6  1  0  0  0  0 
  4  7  1  0  0  0  0 
  6  8  1  0  0  0  0 
  7  9  1  0  0  0  0 
  9 10  1  0  0  0  0 
  9 11  2  0  0  0  0 
 10 12  2  0  0  0  0 
 13 11  1  0  0  0  0 
 12 14  1  0  0  0  0 
 14 13  2  0  0  0  0 
 14 15  1  0  0  0  0 
 15 16  2  0  0  0  0 
 15 17  1  0  0  0  0 
M  END
> <Name>
Phosphonothioic acid, ethyl-, O-ethyl O-(4-(methylsulfinyl)phenyl) ester

> <Source>
Smiles

> <Tox>
5.068

> <CAS>
6587-45-7

$$$$

  CDK

 17 18  0  0  0  0  0  0  0  0999 V2000
    3.4274    0.7030    0.0000 N   0  0  0  0  0  0  0  0  0  0  0  0
    4.2368    1.2909    0.0000 C   0  0  0  0  0  0  0  0  0  0  0  0
    2.6182    1.2909    0.0000 C   0  0  0  0  0  0  0  0  0  0  0  0
    3.9286    2.2426    0.0000 N   0  0  0  0  0  0  0  0  0  0  0  0
    5.1899    0.9806    0.0000 C   0  0  0  0  0  0  0  0  0  0  0  0
    1.6475    1.0833    0.0000 C   0  0  0  0  0  0  0  0  0  0  0  0
    2.9286    2.2395    0.0000 C   0  0  0  0  0  0  0  0  0  0  0  0
    5.3977    0.0000    0.0000 F   0  0  0  0  0  0  0  0  0  0  0  0
    5.9351    1.6508    0.0000 F   0  0  0  0  0  0  0  0  0  0  0  0
    4.6435    0.1402    0.0000 F   0  0  0  0  0  0  0  0  0  0  0  0
    0.9797    1.8199    0.0000 C   0  0  0  0  0  0  0  0  0  0  0  0
    2.2629    2.9800    0.0000 C   0  0  0  0  0  0  0  0  0  0  0  0
    1.2868    2.7736    0.0000 C   0  0  0  0  0  0  0  0  0  0  0  0
    0.0000    1.6084    0.0000 Br  0  0  0  0  0  0  0  0  0  0  0  0
    2.5735    3.9330    0.0000 N   0  0  0  0  0  0  0  0  0  0  0  0
    3.5541    4.1405    0.0000 O   0  0  0  0  0  0  0  0  0  0  0  0
    1.9034    4.6785    0.0000 O   0  0  0  0  0  0  0  0  0  0  0  0
  2  1  1  0  0  0  0 
  1  3  1  0  0  0  0 
  4  2  2  0  0  0  0 
  2  5  1  0  0  0  0 
  3  6  1  0  0  0  0 
  3  7  2  0  0  0  0 
  7  4  1  0  0  0  0 
  5  8  1  0  0  0  0 
  5  9  1  0  0  0  0 
  5 10  1  0  0  0  0 
  6 11  2  0  0  0  0 
 12  7  1  0  0  0  0 
 11 13  1  0  0  0  0 
 11 14  1  0  0  0  0 
 12 15  1  0  0  0  0 
 13 12  2  0  0  0  0 
 15 16  2  0  0  0  0 
 15 17  2  0  0  0  0 
M  END
> <Name>
Benzimidazole, 6-bromo-4-nitro-2-(trifluoromethyl)-

> <Source>
NIST2DMolFile

> <Tox>
5.400

> <CAS>
6609-36-5

$$$$

  CDK

  6  5  0  0  0  0  0  0  0  0999 V2000
    0.0000    1.4900    0.0000 C   0  0  0  0  0  0  0  0  0  0  0  0
    0.8734    1.9524    0.0000 N   0  0  0  0  0  0  0  0  0  0  0  0
    1.7468    1.4900    0.0000 C   0  0  0  0  0  0  0  0  0  0  0  0
    2.6716    1.9524    0.0000 S   0  0  0  0  0  0  0  0  0  0  0  0
    1.7468    0.5138    0.0000 N   0  0  0  0  0  0  0  0  0  0  0  0
    0.8734    0.0000    0.0000 N   0  0  0  0  0  0  0  0  0  0  0  0
  1  2  1  0  0  0  0 
  2  3  1  0  0  0  0 
  3  4  2  0  0  0  0 
  3  5  1  0  0  0  0 
  5  6  1  0  0  0  0 
M  END
> <Name>
Semicarbazide, 4-methyl-3-thio- (8CI)

> <Source>
NIST2DMolFile

> <Tox>
3.876

> <CAS>
6610-29-3

$$$$

  CDK

 24 24  0  0  0  0  0  0  0  0999 V2000
    5.9862   -2.3047    0.0000 N   0  0  0  0  0  0  0  0  0  0  0  0
    6.6546   -3.4520    0.0000 C   0  0  0  0  0  0  0  0  0  0  0  0
    4.6592   -2.3047    0.0000 C   0  0  0  0  0  0  0  0  0  0  0  0
    6.6546   -1.1474    0.0000 C   0  0  0  0  0  0  0  0  0  0  0  0
    7.9816   -3.4520    0.0000 O   0  0  0  0  0  0  0  0  0  0  0  0
    5.9862   -4.6094    0.0000 C   0  0  0  0  0  0  0  0  0  0  0  0
    3.9908   -1.1474    0.0000 C   0  0  0  0  0  0  0  0  0  0  0  0
    5.9862   -0.0000    0.0000 C   0  0  0  0  0  0  0  0  0  0  0  0
    6.6546   -5.7567    0.0000 C   0  0  0  0  0  0  0  0  0  0  0  0
    4.6592   -4.6094    0.0000 N   0  0  0  0  0  0  0  0  0  0  0  0
    2.6638   -1.1474    0.0000 C   0  0  0  0  0  0  0  0  0  0  0  0
    4.6592   -0.0000    0.0000 C   0  0  0  0  0  0  0  0  0  0  0  0
    7.9816   -5.7567    0.0000 C   0  0  0  0  0  0  0  0  0  0  0  0
    3.9908   -5.7567    0.0000 C   0  0  0  0  0  0  0  0  0  0  0  0
    8.6500   -6.9140    0.0000 C   0  0  0  0  0  0  0  0  0  0  0  0
    4.6592   -6.9140    0.0000 O   0  0  0  0  0  0  0  0  0  0  0  0
    2.6638   -5.7567    0.0000 C   0  0  0  0  0  0  0  0  0  0  0  0
    9.9770   -6.9140    0.0000 O   0  0  0  0  0  0  0  0  0  0  0  0
    7.9816   -8.0614    0.0000 O   0  0  0  0  0  0  0  0  0  0  0  0
    1.9954   -6.9140    0.0000 C   0  0  0  0  0  0  0  0  0  0  0  0
    1.9954   -4.6094    0.0000 C   0  0  0  0  0  0  0  0  0  0  0  0
    0.6685   -6.9140    0.0000 C   0  0  0  0  0  0  0  0  0  0  0  0
    0.6685   -4.6094    0.0000 C   0  0  0  0  0  0  0  0  0  0  0  0
    0.0000   -5.7567    0.0000 C   0  0  0  0  0  0  0  0  0  0  0  0
  1  2  1  0  0  0  0 
  1  3  1  0  0  0  0 
  1  4  1  0  0  0  0 
  2  5  2  0  0  0  0 
  2  6  1  0  0  0  0 
  3  7  1  0  0  0  0 
  4  8  1  0  0  0  0 
  6  9  1  0  0  0  0 
  6 10  1  0  0  0  0 
  7 11  1  0  0  0  0 
  8 12  1  0  0  0  0 
  9 13  1  0  0  0  0 
 10 14  1  0  0  0  0 
 13 15  1  0  0  0  0 
 14 16  2  0  0  0  0 
 14 17  1  0  0  0  0 
 15 18  1  0  0  0  0 
 15 19  2  0  0  0  0 
 17 20  2  0  0  0  0 
 17 21  1  0  0  0  0 
 20 22  1  0  0  0  0 
 23 21  2  0  0  0  0 
 22 24  2  0  0  0  0 
 24 23  1  0  0  0  0 
M  END
> <Name>
Pentanoic acid, 4-(benzoylamino)-5-(dipropylamino)-5-oxo-, (+-)-

> <Source>
DSSTox2DMolFile

> <Tox>
1.223

> <CAS>
6620-60-6

$$$$

  CDK

 81 81  0  0  0  0  0  0  0  0999 V2000
    9.8380   -9.7285    0.0000 O   0  0  0  0  0  0  0  0  0  0  0  0
    9.5682   -8.7656    0.0000 C   0  0  0  0  0  0  0  0  0  0  0  0
    8.5775   -8.9017    0.0000 N   0  0  0  0  0  0  0  0  0  0  0  0
   10.4854   -8.3672    0.0000 C   0  0  0  0  0  0  0  0  0  0  0  0
    7.5869   -8.7656    0.0000 C   0  0  0  0  0  0  0  0  0  0  0  0
   11.2611   -7.7361    0.0000 N   0  0  0  0  0  0  0  0  0  0  0  0
   11.0050   -9.2216    0.0000 C   0  0  0  0  0  0  0  0  0  0  0  0
    7.3171   -9.7285    0.0000 C   0  0  0  0  0  0  0  0  0  0  0  0
    6.6696   -8.3672    0.0000 C   0  0  0  0  0  0  0  0  0  0  0  0
   11.8378   -6.9191    0.0000 C   0  0  0  0  0  0  0  0  0  0  0  0
   12.0048   -9.1988    0.0000 C   0  0  0  0  0  0  0  0  0  0  0  0
    8.0161  -10.4436    0.0000 O   0  0  0  0  0  0  0  0  0  0  0  0
    6.3482   -9.9763    0.0000 C   0  0  0  0  0  0  0  0  0  0  0  0
    6.1501   -9.2216    0.0000 O   0  0  0  0  0  0  0  0  0  0  0  0
    5.8939   -7.7361    0.0000 N   0  0  0  0  0  0  0  0  0  0  0  0
   12.7257   -7.3792    0.0000 O   0  0  0  0  0  0  0  0  0  0  0  0
   12.1727   -5.9769    0.0000 C   0  0  0  0  0  0  0  0  0  0  0  0
   12.5243  -10.0533    0.0000 C   0  0  0  0  0  0  0  0  0  0  0  0
   12.4849   -8.3217    0.0000 C   0  0  0  0  0  0  0  0  0  0  0  0
    5.3172   -6.9191    0.0000 C   0  0  0  0  0  0  0  0  0  0  0  0
   12.2409   -4.9792    0.0000 N   0  0  0  0  0  0  0  0  0  0  0  0
   13.1518   -6.1803    0.0000 C   0  0  0  0  0  0  0  0  0  0  0  0
    4.4294   -7.3792    0.0000 C   0  0  0  0  0  0  0  0  0  0  0  0
    4.9824   -5.9769    0.0000 C   0  0  0  0  0  0  0  0  0  0  0  0
   12.0375   -4.0001    0.0000 C   0  0  0  0  0  0  0  0  0  0  0  0
   13.8175   -5.4341    0.0000 C   0  0  0  0  0  0  0  0  0  0  0  0
    4.3838   -8.3782    0.0000 C   0  0  0  0  0  0  0  0  0  0  0  0
    4.0033   -6.1803    0.0000 O   0  0  0  0  0  0  0  0  0  0  0  0
    4.9141   -4.9792    0.0000 N   0  0  0  0  0  0  0  0  0  0  0  0
   12.9797   -3.6652    0.0000 O   0  0  0  0  0  0  0  0  0  0  0  0
   11.5774   -3.1122    0.0000 C   0  0  0  0  0  0  0  0  0  0  0  0
   14.7966   -5.6376    0.0000 N   0  0  0  0  0  0  0  0  0  0  0  0
    3.4960   -8.8382    0.0000 N   0  0  0  0  0  0  0  0  0  0  0  0
    5.1176   -4.0001    0.0000 C   0  0  0  0  0  0  0  0  0  0  0  0
   12.3944   -2.5355    0.0000 N   0  0  0  0  0  0  0  0  0  0  0  0
   10.8949   -2.3814    0.0000 C   0  0  0  0  0  0  0  0  0  0  0  0
    4.1753   -3.6652    0.0000 C   0  0  0  0  0  0  0  0  0  0  0  0
    5.5776   -3.1122    0.0000 C   0  0  0  0  0  0  0  0  0  0  0  0
   12.3035   -1.5397    0.0000 C   0  0  0  0  0  0  0  0  0  0  0  0
   10.0404   -1.8618    0.0000 C   0  0  0  0  0  0  0  0  0  0  0  0
    3.4142   -4.3138    0.0000 C   0  0  0  0  0  0  0  0  0  0  0  0
    4.7607   -2.5355    0.0000 O   0  0  0  0  0  0  0  0  0  0  0  0
    6.2602   -2.3814    0.0000 N   0  0  0  0  0  0  0  0  0  0  0  0
   11.3956   -1.1205    0.0000 O   0  0  0  0  0  0  0  0  0  0  0  0
   13.1204   -0.9630    0.0000 C   0  0  0  0  0  0  0  0  0  0  0  0
    9.0775   -1.5920    0.0000 N   0  0  0  0  0  0  0  0  0  0  0  0
    2.4719   -3.9789    0.0000 N   0  0  0  0  0  0  0  0  0  0  0  0
    7.1146   -1.8618    0.0000 C   0  0  0  0  0  0  0  0  0  0  0  0
   13.0295    0.0329    0.0000 N   0  0  0  0  0  0  0  0  0  0  0  0
   14.0283   -1.3822    0.0000 C   0  0  0  0  0  0  0  0  0  0  0  0
    8.0775   -1.5920    0.0000 C   0  0  0  0  0  0  0  0  0  0  0  0
    6.7162   -0.9446    0.0000 C   0  0  0  0  0  0  0  0  0  0  0  0
   13.8465    0.6095    0.0000 C   0  0  0  0  0  0  0  0  0  0  0  0
   14.8453   -0.8055    0.0000 C   0  0  0  0  0  0  0  0  0  0  0  0
    7.9414   -0.6013    0.0000 O   0  0  0  0  0  0  0  0  0  0  0  0
    5.7227   -0.8310    0.0000 O   0  0  0  0  0  0  0  0  0  0  0  0
    7.3113   -0.1410    0.0000 C   0  0  0  0  0  0  0  0  0  0  0  0
   14.7544    0.1904    0.0000 O   0  0  0  0  0  0  0  0  0  0  0  0
   13.7555    1.6054    0.0000 C   0  0  0  0  0  0  0  0  0  0  0  0
   15.7532   -1.2247    0.0000 N   0  0  0  0  0  0  0  0  0  0  0  0
   14.5725    2.1821    0.0000 N   0  0  0  0  0  0  0  0  0  0  0  0
   12.8476    2.0246    0.0000 C   0  0  0  0  0  0  0  0  0  0  0  0
   14.4816    3.1779    0.0000 C   0  0  0  0  0  0  0  0  0  0  0  0
   12.7567    3.0204    0.0000 O   0  0  0  0  0  0  0  0  0  0  0  0
   12.0307    1.4479    0.0000 C   0  0  0  0  0  0  0  0  0  0  0  0
   13.5737    3.5971    0.0000 O   0  0  0  0  0  0  0  0  0  0  0  0
   15.2985    3.7546    0.0000 C   0  0  0  0  0  0  0  0  0  0  0  0
   15.2076    4.7505    0.0000 N   0  0  0  0  0  0  0  0  0  0  0  0
   16.2064    3.3354    0.0000 C   0  0  0  0  0  0  0  0  0  0  0  0
   16.0246    5.3271    0.0000 C   0  0  0  0  0  0  0  0  0  0  0  0
   17.0234    3.9121    0.0000 C   0  0  0  0  0  0  0  0  0  0  0  0
   16.9325    4.9080    0.0000 O   0  0  0  0  0  0  0  0  0  0  0  0
   15.9336    6.3230    0.0000 C   0  0  0  0  0  0  0  0  0  0  0  0
   17.9313    3.4929    0.0000 N   0  0  0  0  0  0  0  0  0  0  0  0
   16.7506    6.8997    0.0000 C   0  0  0  0  0  0  0  0  0  0  0  0
   16.6597    7.8955    0.0000 C   0  0  0  0  0  0  0  0  0  0  0  0
   17.4766    8.4722    0.0000 C   0  0  0  0  0  0  0  0  0  0  0  0
   17.3857    9.4681    0.0000 C   0  0  0  0  0  0  0  0  0  0  0  0
   18.2027   10.0448    0.0000 C   0  0  0  0  0  0  0  0  0  0  0  0
   16.4778    9.8873    0.0000 C   0  0  0  0  0  0  0  0  0  0  0  0
   18.1117   11.0406    0.0000 C   0  0  0  0  0  0  0  0  0  0  0  0
  1  2  2  0  0  0  0 
  3  2  1  0  0  0  0 
  4  2  1  0  0  0  0 
  3  5  1  0  0  0  0 
  6  4  1  0  0  0  0 
  4  7  1  6  0  0  0 
  5  8  1  0  0  0  0 
  5  9  1  0  0  0  0 
  6 10  1  0  0  0  0 
  7 11  1  0  0  0  0 
  8 12  1  6  0  0  0 
  8 13  1  0  0  0  0 
 14  9  2  0  0  0  0 
 15  9  1  0  0  0  0 
 16 10  2  0  0  0  0 
 17 10  1  0  0  0  0 
 11 18  1  0  0  0  0 
 11 19  1  0  0  0  0 
 15 20  1  0  0  0  0 
 21 17  1  0  0  0  0 
 17 22  1  1  0  0  0 
 20 23  1  1  0  0  0 
 20 24  1  0  0  0  0 
 21 25  1  0  0  0  0 
 22 26  1  0  0  0  0 
 23 27  1  0  0  0  0 
 28 24  2  0  0  0  0 
 29 24  1  0  0  0  0 
 30 25  2  0  0  0  0 
 31 25  1  0  0  0  0 
 32 26  1  0  0  0  0 
 33 27  1  0  0  0  0 
 29 34  1  0  0  0  0 
 31 35  1  6  0  0  0 
 31 36  1  0  0  0  0 
 34 37  1  1  0  0  0 
 34 38  1  0  0  0  0 
 35 39  1  0  0  0  0 
 36 40  1  0  0  0  0 
 37 41  1  0  0  0  0 
 42 38  2  0  0  0  0 
 43 38  1  0  0  0  0 
 44 39  2  0  0  0  0 
 45 39  1  0  0  0  0 
 46 40  1  0  0  0  0 
 47 41  1  0  0  0  0 
 43 48  1  0  0  0  0 
 45 49  1  1  0  0  0 
 45 50  1  0  0  0  0 
 46 51  1  0  0  0  0 
 48 52  1  0  0  0  0 
 48 51  1  0  0  0  0 
 49 53  1  0  0  0  0 
 50 54  1  0  0  0  0 
 55 51  2  0  0  0  0 
 52 56  1  6  0  0  0 
 52 57  1  0  0  0  0 
 58 53  2  0  0  0  0 
 59 53  1  0  0  0  0 
 60 54  1  0  0  0  0 
 59 61  1  6  0  0  0 
 59 62  1  0  0  0  0 
 61 63  1  0  0  0  0 
 62 64  1  1  0  0  0 
 62 65  1  0  0  0  0 
 66 63  2  0  0  0  0 
 67 63  1  0  0  0  0 
 67 68  1  1  0  0  0 
 67 69  1  0  0  0  0 
 68 70  1  0  0  0  0 
 69 71  1  0  0  0  0 
 72 70  2  0  0  0  0 
 73 70  1  0  0  0  0 
 74 71  1  0  0  0  0 
 75 73  1  0  0  0  0 
 76 75  1  0  0  0  0 
 77 76  1  0  0  0  0 
 78 77  1  0  0  0  0 
 78 79  1  0  0  0  0 
 78 80  1  0  0  0  0 
 79 81  1  0  0  0  0 
M  END
> <Name>
Polymyxin E(sub 1), 7-L-theonine-

> <Source>
Chemidplus3DMolFile

> <Tox>
3.104

> <CAS>
6683-17-6

$$$$

  CDK

 10  9  0  0  0  0  0  0  0  0999 V2000
    2.4022   -1.0002    0.0000 O   0  0  0  0  0  0  0  0  0  0  0  0
    1.6226   -0.7301    0.0000 C   0  0  0  0  0  0  0  0  0  0  0  0
    0.8431   -0.4601    0.0000 C   0  0  0  0  0  0  0  0  0  0  0  0
    0.0635   -0.1900    0.0000 N   0  0  0  0  0  0  0  0  0  0  0  0
   -0.5601   -0.7301    0.0000 C   0  0  0  0  0  0  0  0  0  0  0  0
   -0.0924    0.6201    0.0000 C   0  0  0  0  0  0  0  0  0  0  0  0
   -1.1838   -1.2702    0.0000 C   0  0  0  0  0  0  0  0  0  0  0  0
   -0.2483    1.4302    0.0000 C   0  0  0  0  0  0  0  0  0  0  0  0
   -1.8074   -1.8103    0.0000 O   0  0  0  0  0  0  0  0  0  0  0  0
   -0.4042    2.2404    0.0000 C   0  0  0  0  0  0  0  0  0  0  0  0
  1  2  1  0  0  0  0 
  2  3  1  0  0  0  0 
  3  4  1  0  0  0  0 
  4  5  1  0  0  0  0 
  4  6  1  0  0  0  0 
  5  7  1  0  0  0  0 
  6  8  1  0  0  0  0 
  7  9  1  0  0  0  0 
  8 10  1  0  0  0  0 
M  END
> <Name>
Ethanol, 2,2'-(propylimino)bis-

> <Source>
Smiles

> <Tox>
1.689

> <CAS>
6735-35-9

$$$$

  CDK

 19 21  0  0  0  0  0  0  0  0999 V2000
    0.0000    0.0000    0.0000 C   0  0  0  0  0  0  0  0  0  0  0  0
    0.0000    0.0000   -1.5400 C   0  0  0  0  0  0  0  0  0  0  0  0
    0.1800    1.4000   -2.1600 C   0  0  0  0  0  0  0  0  0  0  0  0
   -1.3000   -0.6200   -2.1200 C   0  0  0  0  0  0  0  0  0  0  0  0
    1.2800   -0.7000   -1.9600 C   0  0  0  0  0  0  0  0  0  0  0  0
   -0.3200    2.6000   -1.3400 C   0  0  0  0  0  0  0  0  0  0  0  0
    1.6400    1.4800   -2.5400 C   0  0  0  0  0  0  0  0  0  0  0  0
   -2.6400    0.0600   -1.7600 C   0  0  0  0  0  0  0  0  0  0  0  0
   -1.4000   -1.9800   -1.7400 O   0  0  0  0  0  0  0  0  0  0  0  0
    2.2200    0.2800   -2.4600 C   0  0  0  0  0  0  0  0  0  0  0  0
    1.4800   -1.9000   -1.9000 O   0  0  0  0  0  0  0  0  0  0  0  0
   -0.2800    3.8400   -2.2400 C   0  0  0  0  0  0  0  0  0  0  0  0
   -1.7000    2.3800   -0.7400 C   0  0  0  0  0  0  0  0  0  0  0  0
   -2.7400    1.6000   -1.5800 C   0  0  0  0  0  0  0  0  0  0  0  0
   -3.5600   -0.0200   -2.9400 C   0  0  0  0  0  0  0  0  0  0  0  0
   -2.9600    2.2000   -2.8600 O   0  0  0  0  0  0  0  0  0  0  0  0
   -4.2600   -1.1000   -3.3000 C   0  0  0  0  0  0  0  0  0  0  0  0
   -3.5600    1.2800   -3.6200 C   0  0  0  0  0  0  0  0  0  0  0  0
   -4.0400    1.4800   -4.7200 O   0  0  0  0  0  0  0  0  0  0  0  0
  1  2  1  0  0  0  0 
  2  3  1  0  0  0  0 
  2  4  1  0  0  0  0 
  2  5  1  0  0  0  0 
  3  6  1  0  0  0  0 
  3  7  1  0  0  0  0 
  8  4  1  0  0  0  0 
  4  9  1  0  0  0  0 
  5 10  1  0  0  0  0 
  5 11  2  0  0  0  0 
  6 12  1  0  0  0  0 
  6 13  1  0  0  0  0 
 10  7  2  0  0  0  0 
 14  8  1  0  0  0  0 
  8 15  1  0  0  0  0 
 13 14  1  0  0  0  0 
 14 16  1  0  0  0  0 
 17 15  2  0  0  0  0 
 15 18  1  0  0  0  0 
 18 16  1  0  0  0  0 
 19 18  2  0  0  0  0 
M  END
> <Name>
Azuleno(6,5-b)furan-2,5-dione, 3,3a,4,4a,7a,8,9,9a-octahydro-4-hydroxy-4a,8-dimethyl-3-methylene-, (3aS-(3aalpha,4alpha,4abeta,7aalpha,8alpha,9aalpha))- (9CI)

> <Source>
NIH3DMolFile

> <Tox>
3.322

> <CAS>
6754-13-8

$$$$

  CDK

 15 15  0  0  0  0  0  0  0  0999 V2000
    5.9863   -1.1484    0.0000 O   0  0  0  0  0  0  0  0  0  0  0  0
    6.6456   -2.3073    0.0000 C   0  0  0  0  0  0  0  0  0  0  0  0
    5.9863   -3.4557    0.0000 O   0  0  0  0  0  0  0  0  0  0  0  0
    7.9747   -2.3073    0.0000 C   0  0  0  0  0  0  0  0  0  0  0  0
    4.6572   -3.4557    0.0000 C   0  0  0  0  0  0  0  0  0  0  0  0
    8.6339   -1.1484    0.0000 C   0  0  0  0  0  0  0  0  0  0  0  0
    8.6339   -3.4557    0.0000 C   0  0  0  0  0  0  0  0  0  0  0  0
    3.9873   -2.3073    0.0000 C   0  0  0  0  0  0  0  0  0  0  0  0
    9.9630   -1.1484    0.0000 C   0  0  0  0  0  0  0  0  0  0  0  0
    9.9630   -3.4557    0.0000 C   0  0  0  0  0  0  0  0  0  0  0  0
    2.6582   -2.3073    0.0000 C   0  0  0  0  0  0  0  0  0  0  0  0
   10.6329   -2.3073    0.0000 C   0  0  0  0  0  0  0  0  0  0  0  0
    1.9990   -1.1484    0.0000 C   0  0  0  0  0  0  0  0  0  0  0  0
    0.6699   -1.1484    0.0000 C   0  0  0  0  0  0  0  0  0  0  0  0
    0.0000   -0.0000    0.0000 C   0  0  0  0  0  0  0  0  0  0  0  0
  1  2  2  0  0  0  0 
  2  3  1  0  0  0  0 
  2  4  1  0  0  0  0 
  3  5  1  0  0  0  0 
  4  6  2  0  0  0  0 
  4  7  1  0  0  0  0 
  5  8  1  0  0  0  0 
  6  9  1  0  0  0  0 
 10  7  2  0  0  0  0 
  8 11  1  0  0  0  0 
  9 12  2  0  0  0  0 
 12 10  1  0  0  0  0 
 11 13  1  0  0  0  0 
 13 14  1  0  0  0  0 
 14 15  1  0  0  0  0 
M  END
> <Name>
Benzoic acid, hexyl ester

> <Source>
DSSTox2DMolFile

> <Tox>
1.225

> <CAS>
6789-88-4

$$$$

  CDK

 19 20  0  0  0  0  0  0  0  0999 V2000
    2.5896    0.0000    0.0000 O   0  0  0  0  0  0  0  0  0  0  0  0
    2.5896    0.9960    0.0000 N   0  0  0  0  0  0  0  0  0  0  0  0
    3.4860    1.4940    0.0000 C   0  0  0  0  0  0  0  0  0  0  0  0
    1.7430    1.4940    0.0000 C   0  0  0  0  0  0  0  0  0  0  0  0
    3.4860    2.4900    0.0000 C   0  0  0  0  0  0  0  0  0  0  0  0
    1.7430    2.4900    0.0000 C   0  0  0  0  0  0  0  0  0  0  0  0
    0.8964    0.9960    0.0000 C   0  0  0  0  0  0  0  0  0  0  0  0
    2.5896    2.9880    0.0000 N   0  0  0  0  0  0  0  0  0  0  0  0
    4.3326    2.9880    0.0000 C   0  0  0  0  0  0  0  0  0  0  0  0
    0.8964    2.9880    0.0000 C   0  0  0  0  0  0  0  0  0  0  0  0
    0.0000    1.4940    0.0000 C   0  0  0  0  0  0  0  0  0  0  0  0
    2.5896    3.9840    0.0000 O   0  0  0  0  0  0  0  0  0  0  0  0
    5.1792    2.4900    0.0000 N   0  0  0  0  0  0  0  0  0  0  0  0
    0.0000    2.4900    0.0000 C   0  0  0  0  0  0  0  0  0  0  0  0
    6.0756    2.9880    0.0000 N   0  0  0  0  0  0  0  0  0  0  0  0
    6.0756    3.9840    0.0000 C   0  0  0  0  0  0  0  0  0  0  0  0
    5.1792    4.4820    0.0000 O   0  0  0  0  0  0  0  0  0  0  0  0
    6.9222    4.4820    0.0000 O   0  0  0  0  0  0  0  0  0  0  0  0
    5.1792    5.4780    0.0000 C   0  0  0  0  0  0  0  0  0  0  0  0
  1  2  2  0  0  0  0 
  3  2  2  0  0  0  0 
  2  4  1  0  0  0  0 
  5  3  1  0  0  0  0 
  6  4  1  0  0  0  0 
  4  7  2  0  0  0  0 
  8  5  2  0  0  0  0 
  9  5  1  0  0  0  0 
  6  8  1  0  0  0  0 
 10  6  2  0  0  0  0 
  7 11  1  0  0  0  0 
 12  8  2  0  0  0  0 
 13  9  2  0  0  0  0 
 14 10  1  0  0  0  0 
 11 14  2  0  0  0  0 
 15 13  1  0  0  0  0 
 16 15  1  0  0  0  0 
 17 16  1  0  0  0  0 
 16 18  2  0  0  0  0 
 19 17  1  0  0  0  0 
M  END
> <Name>
Hydrazinecarboxylic acid, (2-quinoxalinylmethylene)-, methyl ester N(sup 1),N(sup 4)-dioxide

> <Source>
NIST2DMolFile

> <Tox>
2.489

> <CAS>
6804-07-5

$$$$

  CDK

 12 13  0  0  0  0  0  0  0  0999 V2000
    1.5701    1.7221    0.0000 N   0  0  0  0  0  0  0  0  0  0  0  0
    0.9623    2.5324    0.0000 C   0  0  0  0  0  0  0  0  0  0  0  0
    0.9623    0.9623    0.0000 C   0  0  0  0  0  0  0  0  0  0  0  0
    2.5324    1.7221    0.0000 C   0  0  0  0  0  0  0  0  0  0  0  0
    0.0000    2.2285    0.0000 C   0  0  0  0  0  0  0  0  0  0  0  0
    0.0000    1.2662    0.0000 C   0  0  0  0  0  0  0  0  0  0  0  0
    1.2662    0.0000    0.0000 O   0  0  0  0  0  0  0  0  0  0  0  0
    3.0896    2.6844    0.0000 C   0  0  0  0  0  0  0  0  0  0  0  0
    3.0896    0.9117    0.0000 C   0  0  0  0  0  0  0  0  0  0  0  0
    4.0519    2.6844    0.0000 C   0  0  0  0  0  0  0  0  0  0  0  0
    4.0519    0.9117    0.0000 C   0  0  0  0  0  0  0  0  0  0  0  0
    4.5584    1.7727    0.0000 C   0  0  0  0  0  0  0  0  0  0  0  0
  1  2  1  0  0  0  0 
  3  1  1  0  0  0  0 
  1  4  1  0  0  0  0 
  2  5  1  0  0  0  0 
  6  3  1  0  0  0  0 
  3  7  2  0  0  0  0 
  8  4  1  0  0  0  0 
  4  9  1  0  0  0  0 
  5  6  1  0  0  0  0 
 10  8  1  0  0  0  0 
  9 11  1  0  0  0  0 
 12 10  1  0  0  0  0 
 11 12  1  0  0  0  0 
M  END
> <Name>
2-Pyrrolidinone, 1-cyclohexyl-

> <Source>
NIST2DMolFile

> <Tox>
2.655

> <CAS>
6837-24-7

$$$$

  CDK

 30 32  0  0  0  0  0  0  0  0999 V2000
    0.0000    0.0000    0.0000 C   0  0  0  0  0  0  0  0  0  0  0  0
   -0.2000   -1.0000    0.8200 O   0  0  0  0  0  0  0  0  0  0  0  0
   -1.0400    0.9000   -0.3400 C   0  0  0  0  0  0  0  0  0  0  0  0
    1.2800    0.1600   -0.5600 C   0  0  0  0  0  0  0  0  0  0  0  0
    0.9600   -1.9400    1.2000 S   0  0  0  0  0  0  0  0  0  0  0  0
   -0.7400    1.9800   -1.2600 C   0  0  0  0  0  0  0  0  0  0  0  0
   -2.3600    0.8200    0.2000 C   0  0  0  0  0  0  0  0  0  0  0  0
    1.5600    1.2000   -1.4600 C   0  0  0  0  0  0  0  0  0  0  0  0
    2.1800   -1.2200    1.6000 O   0  0  0  0  0  0  0  0  0  0  0  0
    0.5800   -2.9800    2.1600 O   0  0  0  0  0  0  0  0  0  0  0  0
    1.2400   -2.6800   -0.3200 C   0  0  0  0  0  0  0  0  0  0  0  0
    0.5400    2.1000   -1.8000 C   0  0  0  0  0  0  0  0  0  0  0  0
   -1.7200    2.9000   -1.6400 C   0  0  0  0  0  0  0  0  0  0  0  0
   -3.3200    1.7600   -0.2000 C   0  0  0  0  0  0  0  0  0  0  0  0
   -2.7600   -0.1600    1.0800 N   0  0  0  0  0  0  0  0  0  0  0  0
    3.1400    1.3600   -2.1200 S   0  0  0  0  0  0  0  0  0  0  0  0
    2.5400   -3.1400   -0.6600 C   0  0  0  0  0  0  0  0  0  0  0  0
    0.1800   -2.8200   -1.2400 C   0  0  0  0  0  0  0  0  0  0  0  0
   -3.0200    2.7800   -1.1000 C   0  0  0  0  0  0  0  0  0  0  0  0
    3.8000    2.4600   -1.4600 O   0  0  0  0  0  0  0  0  0  0  0  0
    3.0000    1.5600   -3.5600 O   0  0  0  0  0  0  0  0  0  0  0  0
    3.7000   -0.0200   -1.7600 O   0  0  0  0  0  0  0  0  0  0  0  0
    2.7600   -3.7400   -1.9000 C   0  0  0  0  0  0  0  0  0  0  0  0
    0.4000   -3.4400   -2.4800 C   0  0  0  0  0  0  0  0  0  0  0  0
   -4.2400    3.9200   -1.5400 S   0  0  0  0  0  0  0  0  0  0  0  0
    1.7000   -3.8800   -2.8200 C   0  0  0  0  0  0  0  0  0  0  0  0
   -4.4600    4.8200   -0.4200 O   0  0  0  0  0  0  0  0  0  0  0  0
   -5.4200    3.2000   -1.9400 O   0  0  0  0  0  0  0  0  0  0  0  0
   -3.5200    4.6000   -2.7200 O   0  0  0  0  0  0  0  0  0  0  0  0
    1.9400   -4.5200   -4.1400 C   0  0  0  0  0  0  0  0  0  0  0  0
  1  2  1  0  0  0  0 
  1  3  2  0  0  0  0 
  1  4  1  0  0  0  0 
  2  5  1  0  0  0  0 
  3  6  1  0  0  0  0 
  3  7  1  0  0  0  0 
  8  4  2  0  0  0  0 
  5  9  2  0  0  0  0 
  5 10  2  0  0  0  0 
  5 11  1  0  0  0  0 
  6 12  2  0  0  0  0 
  6 13  1  0  0  0  0 
 14  7  2  0  0  0  0 
  7 15  1  0  0  0  0 
 12  8  1  0  0  0  0 
  8 16  1  0  0  0  0 
 11 17  2  0  0  0  0 
 11 18  1  0  0  0  0 
 19 13  2  0  0  0  0 
 19 14  1  0  0  0  0 
 16 20  2  0  0  0  0 
 16 21  2  0  0  0  0 
 16 22  1  0  0  0  0 
 17 23  1  0  0  0  0 
 24 18  2  0  0  0  0 
 25 19  1  0  0  0  0 
 23 26  2  0  0  0  0 
 26 24  1  0  0  0  0 
 25 27  2  0  0  0  0 
 25 28  2  0  0  0  0 
 25 29  1  0  0  0  0 
 26 30  1  0  0  0  0 
M  END
> <Name>
2,7-Naphthalenedisulfonic acid, 4-amino-5-(((4-methylphenyl)sulfonyl)oxy)- (9CI)

> <Source>
NIH3DMolFile

> <Tox>
1.615

> <CAS>
6837-93-0

$$$$

  CDK

  7  7  0  0  0  0  0  0  0  0999 V2000
   -0.8446    3.3399    0.0000 S   0  0  0  0  0  0  0  0  0  0  0  0
    0.5248    3.0488    0.0000 S   0  0  0  0  0  0  0  0  0  0  0  0
   -1.5446    2.1275    0.0000 C   0  0  0  0  0  0  0  0  0  0  0  0
    0.6712    1.6565    0.0000 C   0  0  0  0  0  0  0  0  0  0  0  0
   -0.6078    1.0871    0.0000 N   0  0  0  0  0  0  0  0  0  0  0  0
   -2.9369    1.9811    0.0000 S   0  0  0  0  0  0  0  0  0  0  0  0
    1.8836    0.9565    0.0000 N   0  0  0  0  0  0  0  0  0  0  0  0
  2  1  1  0  0  0  0 
  3  1  1  0  0  0  0 
  4  2  1  0  0  0  0 
  3  5  1  0  0  0  0 
  3  6  2  0  0  0  0 
  5  4  2  0  0  0  0 
  4  7  1  0  0  0  0 
M  END
> <Name>
3H-1,2,4-Dithiazole-3-thione, 5-amino- (8CI)(9CI)

> <Source>
IndexNet2DMolFile

> <Tox>
1.693

> <CAS>
6846-35-1

$$$$

  CDK

 16 15  0  0  0  0  0  0  0  0999 V2000
    0.0000    0.0000    0.0000 O   0  0  0  0  0  0  0  0  0  0  0  0
   -0.9400   -0.7600    0.1600 C   0  0  0  0  0  0  0  0  0  0  0  0
   -0.7600   -2.2400   -0.0400 C   0  0  0  0  0  0  0  0  0  0  0  0
   -2.1600   -0.3800    0.5200 O   0  0  0  0  0  0  0  0  0  0  0  0
   -0.2000   -2.5800   -1.4200 C   0  0  0  0  0  0  0  0  0  0  0  0
   -2.2200    1.0000    0.8400 C   0  0  0  0  0  0  0  0  0  0  0  0
    0.3000   -4.0200   -1.5200 C   0  0  0  0  0  0  0  0  0  0  0  0
   -1.5000    1.2400    2.0800 C   0  0  0  0  0  0  0  0  0  0  0  0
    1.2400   -4.2400   -2.7000 C   0  0  0  0  0  0  0  0  0  0  0  0
   -0.9200    1.4400    3.1000 C   0  0  0  0  0  0  0  0  0  0  0  0
    2.1200   -5.4400   -2.5200 C   0  0  0  0  0  0  0  0  0  0  0  0
    3.4400   -5.3200   -2.3600 O   0  0  0  0  0  0  0  0  0  0  0  0
    1.6600   -6.5600   -2.5000 O   0  0  0  0  0  0  0  0  0  0  0  0
    4.0800   -6.5600   -2.0600 C   0  0  0  0  0  0  0  0  0  0  0  0
    5.4600   -6.3200   -1.7000 C   0  0  0  0  0  0  0  0  0  0  0  0
    6.6000   -6.1200   -1.4000 C   0  0  0  0  0  0  0  0  0  0  0  0
  1  2  2  0  0  0  0 
  2  3  1  0  0  0  0 
  2  4  1  0  0  0  0 
  3  5  1  0  0  0  0 
  4  6  1  0  0  0  0 
  5  7  1  0  0  0  0 
  6  8  1  0  0  0  0 
  7  9  1  0  0  0  0 
  8 10  3  0  0  0  0 
  9 11  1  0  0  0  0 
 11 12  1  0  0  0  0 
 11 13  2  0  0  0  0 
 12 14  1  0  0  0  0 
 15 14  1  0  0  0  0 
 16 15  3  0  0  0  0 
M  END
> <Name>
Hexanedioic acid, di-2-propynyl ester (9CI)

> <Source>
NIH3DMolFile

> <Tox>
3.046

> <CAS>
6900-06-7

$$$$

  CDK

 11 10  0  0  0  0  0  0  0  0999 V2000
   -1.8046   -0.8797   -0.7084 C   0  0  0  0  0  0  0  0  0  0  0  0
   -1.6585    0.1853    0.3952 C   0  0  0  0  0  0  0  0  0  0  0  0
   -2.5534   -0.7493   -1.6481 O   0  0  0  0  0  0  0  0  0  0  0  0
   -0.1914    0.2582    0.8614 C   0  0  0  0  0  0  0  0  0  0  0  0
   -2.0162    1.4864   -0.0389 O   0  0  0  0  0  0  0  0  0  0  0  0
   -2.5506   -0.2521    1.5669 C   0  0  0  0  0  0  0  0  0  0  0  0
    0.7759    0.6090   -0.2593 C   0  0  0  0  0  0  0  0  0  0  0  0
    2.2282    0.5750    0.2103 C   0  0  0  0  0  0  0  0  0  0  0  0
    2.8112   -0.8195    0.3573 C   0  0  0  0  0  0  0  0  0  0  0  0
    3.1110    1.3622   -0.7463 C   0  0  0  0  0  0  0  0  0  0  0  0
    2.2163   -1.8471    0.1312 O   0  0  0  0  0  0  0  0  0  0  0  0
  1  2  1  0  0  0  0 
  1  3  2  0  0  0  0 
  2  4  1  0  0  0  0 
  2  5  1  0  0  0  0 
  2  6  1  0  0  0  0 
  4  7  1  0  0  0  0 
  7  8  1  0  0  0  0 
  8  9  1  0  0  0  0 
  8 10  1  0  0  0  0 
  9 11  2  0  0  0  0 
M  END
> <Name>
Hexanedial, 2-hydroxy-2,5-dimethyl- (9CI)

> <Source>
DougDB3DMolFile

> <Tox>
1.429

> <CAS>
6970-59-8

$$$$

  CDK

 26 27  0  0  0  0  0  0  0  0999 V2000
    8.9653    1.3169    0.0000 C   0  0  0  0  0  0  0  0  0  0  0  0
    8.9653    2.1780    0.0000 C   0  0  0  0  0  0  0  0  0  0  0  0
    9.7251    0.8611    0.0000 C   0  0  0  0  0  0  0  0  0  0  0  0
    7.2432    0.2533    0.0000 O   0  0  0  0  0  0  0  0  0  0  0  0
    9.7251    2.6339    0.0000 C   0  0  0  0  0  0  0  0  0  0  0  0
    8.2055    2.6339    0.0000 O   0  0  0  0  0  0  0  0  0  0  0  0
   10.4849    1.3169    0.0000 C   0  0  0  0  0  0  0  0  0  0  0  0
    9.7251    0.0000    0.0000 O   0  0  0  0  0  0  0  0  0  0  0  0
    5.3184    1.3169    0.0000 C   0  0  0  0  0  0  0  0  0  0  0  0
   10.4849    2.1780    0.0000 C   0  0  0  0  0  0  0  0  0  0  0  0
    9.7251    3.4950    0.0000 O   0  0  0  0  0  0  0  0  0  0  0  0
   11.2953    0.8611    0.0000 O   0  0  0  0  0  0  0  0  0  0  0  0
    4.5080    0.9624    0.0000 O   0  0  0  0  0  0  0  0  0  0  0  0
    5.3184    2.1780    0.0000 C   0  0  0  0  0  0  0  0  0  0  0  0
   11.2953    2.6339    0.0000 O   0  0  0  0  0  0  0  0  0  0  0  0
    3.7482    1.3169    0.0000 C   0  0  0  0  0  0  0  0  0  0  0  0
    4.5080    2.5832    0.0000 C   0  0  0  0  0  0  0  0  0  0  0  0
    6.0275    2.5832    0.0000 N   0  0  0  0  0  0  0  0  0  0  0  0
    3.7482    2.1780    0.0000 C   0  0  0  0  0  0  0  0  0  0  0  0
    2.9378    0.7598    0.0000 C   0  0  0  0  0  0  0  0  0  0  0  0
    2.9378    2.5832    0.0000 N   0  0  0  0  0  0  0  0  0  0  0  0
    2.0261    2.1780    0.0000 C   0  0  0  0  0  0  0  0  0  0  0  0
    1.0637    2.5832    0.0000 C   0  0  0  0  0  0  0  0  0  0  0  0
    2.0261    1.2663    0.0000 N   0  0  0  0  0  0  0  0  0  0  0  0
    0.0000    2.1274    0.0000 O   0  0  0  0  0  0  0  0  0  0  0  0
    1.0637    3.5963    0.0000 O   0  0  0  0  0  0  0  0  0  0  0  0
  1  2  1  0  0  0  0 
  3  1  1  0  0  0  0 
  1  4  1  0  0  0  0 
  2  5  1  0  0  0  0 
  2  6  1  0  0  0  0 
  7  3  1  0  0  0  0 
  3  8  1  0  0  0  0 
  4  9  1  0  0  0  0 
  5 10  1  0  0  0  0 
  5 11  1  0  0  0  0 
 10  7  1  0  0  0  0 
  7 12  1  0  0  0  0 
  9 13  1  0  0  0  0 
 14  9  1  0  0  0  0 
 10 15  1  0  0  0  0 
 13 16  1  0  0  0  0 
 17 14  1  0  0  0  0 
 14 18  1  0  0  0  0 
 16 19  1  0  0  0  0 
 16 20  1  0  0  0  0 
 19 17  1  0  0  0  0 
 19 21  1  0  0  0  0 
 21 22  1  0  0  0  0 
 23 22  1  0  0  0  0 
 22 24  2  0  0  0  0 
 25 23  1  0  0  0  0 
 23 26  2  0  0  0  0 
M  END
> <Name>
D-chiro-Inositol, 3-O-(2-amino-4-((carboxyiminomethyl)amino)-2,3,4,6-tetradeoxy-alpha-D-arabino-hexopyranosyl)-

> <Source>
NIST2DMolFile

> <Tox>
1.522

> <CAS>
6980-18-3

$$$$

  CDK

 18 19  0  0  0  0  0  0  0  0999 V2000
    2.4009   -0.3935    4.0066 O   0  0  0  0  0  0  0  0  0  0  0  0
    2.0652   -1.5668    3.2577 C   0  0  0  0  0  0  0  0  0  0  0  0
    3.5659    0.2971    3.5610 C   0  0  0  0  0  0  0  0  0  0  0  0
    2.2603   -1.4670    1.8449 O   0  0  0  0  0  0  0  0  0  0  0  0
    2.7956   -2.7659    3.8306 C   0  0  0  0  0  0  0  0  0  0  0  0
    3.2754    1.1730    2.3798 C   0  0  0  0  0  0  0  0  0  0  0  0
    1.5949   -0.3512    1.2583 C   0  0  0  0  0  0  0  0  0  0  0  0
    2.2714   -3.4694    4.9157 C   0  0  0  0  0  0  0  0  0  0  0  0
    4.0054   -3.1647    3.2611 C   0  0  0  0  0  0  0  0  0  0  0  0
    2.3839    0.9142    1.4118 C   0  0  0  0  0  0  0  0  0  0  0  0
    1.0916   -3.0941    5.4846 O   0  0  0  0  0  0  0  0  0  0  0  0
    2.9563   -4.5703    5.4304 C   0  0  0  0  0  0  0  0  0  0  0  0
    4.6901   -4.2655    3.7760 C   0  0  0  0  0  0  0  0  0  0  0  0
    1.2095   -2.1633    6.5342 C   0  0  0  0  0  0  0  0  0  0  0  0
    4.1657   -4.9682    4.8606 C   0  0  0  0  0  0  0  0  0  0  0  0
    2.2812   -1.7115    6.9267 O   0  0  0  0  0  0  0  0  0  0  0  0
   -0.0319   -1.8450    7.0453 N   0  0  0  0  0  0  0  0  0  0  0  0
   -0.2335   -0.9150    8.1319 C   0  0  0  0  0  0  0  0  0  0  0  0
  1  2  1  0  0  0  0 
  1  3  1  0  0  0  0 
  4  2  1  0  0  0  0 
  2  5  1  0  0  0  0 
  3  6  1  0  0  0  0 
  4  7  1  0  0  0  0 
  5  8  1  0  0  0  0 
  5  9  2  0  0  0  0 
  6 10  2  0  0  0  0 
  7 10  1  0  0  0  0 
 11  8  1  0  0  0  0 
  8 12  2  0  0  0  0 
  9 13  1  0  0  0  0 
 11 14  1  0  0  0  0 
 12 15  1  0  0  0  0 
 13 15  2  0  0  0  0 
 16 14  2  0  0  0  0 
 17 14  1  0  0  0  0 
 17 18  1  0  0  0  0 
M  END
> <Name>
Carbamic acid, methyl-, o-(4,7-dihydro-1,3-dioxepin-2-yl)phenyl ester

> <Source>
Chemidplus3DMolFile

> <Tox>
3.853

> <CAS>
7070-71-5

$$$$

  CDK

 15 16  0  0  0  0  0  0  0  0999 V2000
    1.9068    0.0010    0.0100 C   0  0  0  0  0  0  0  0  0  0  0  0
    0.4401   -0.0398    0.0745 C   0  0  0  0  0  0  0  0  0  0  0  0
    2.5902    1.1908    0.2746 C   0  0  0  0  0  0  0  0  0  0  0  0
    2.6289   -1.1499   -0.3168 C   0  0  0  0  0  0  0  0  0  0  0  0
   -0.2064   -1.0688    0.7631 C   0  0  0  0  0  0  0  0  0  0  0  0
   -0.3207    0.9516   -0.5513 C   0  0  0  0  0  0  0  0  0  0  0  0
    3.9784    1.2255    0.2147 C   0  0  0  0  0  0  0  0  0  0  0  0
    4.0168   -1.1076   -0.3795 C   0  0  0  0  0  0  0  0  0  0  0  0
   -1.5941   -1.1074    0.8251 C   0  0  0  0  0  0  0  0  0  0  0  0
   -1.7064    0.9070   -0.4906 C   0  0  0  0  0  0  0  0  0  0  0  0
    4.6931    0.0782   -0.1131 C   0  0  0  0  0  0  0  0  0  0  0  0
   -2.3547   -0.1213    0.1960 C   0  0  0  0  0  0  0  0  0  0  0  0
   -3.8572   -0.1829    0.2392 C   0  0  0  0  0  0  0  0  0  0  0  0
   -4.3744   -0.8447   -1.0311 C   0  0  0  0  0  0  0  0  0  0  0  0
   -4.4642    1.2020    0.4058 C   0  0  0  0  0  0  0  0  0  0  0  0
  1  2  1  0  0  0  0 
  1  3  1  0  0  0  0 
  1  4  2  0  0  0  0 
  2  5  1  0  0  0  0 
  2  6  2  0  0  0  0 
  3  7  2  0  0  0  0 
  8  4  1  0  0  0  0 
  5  9  2  0  0  0  0 
 10  6  1  0  0  0  0 
  7 11  1  0  0  0  0 
 11  8  2  0  0  0  0 
  9 12  1  0  0  0  0 
 12 10  2  0  0  0  0 
 12 13  1  0  0  0  0 
 13 14  1  0  0  0  0 
 13 15  1  0  0  0  0 
M  END
> <Name>
Biphenyl, 4-isopropyl-

> <Source>
DougDB3DMolFile

> <Tox>
1.363

> <CAS>
7116-95-2

$$$$

  CDK

 20 20  0  0  0  0  0  0  0  0999 V2000
    5.7570   -3.4563    0.0000 C   0  0  0  0  0  0  0  0  0  0  0  0
    5.0907   -4.6119    0.0000 C   0  0  0  0  0  0  0  0  0  0  0  0
    6.9126   -4.1226    0.0000 C   0  0  0  0  0  0  0  0  0  0  0  0
    6.4233   -2.3111    0.0000 C   0  0  0  0  0  0  0  0  0  0  0  0
    4.6014   -2.7900    0.0000 O   0  0  0  0  0  0  0  0  0  0  0  0
    8.0577   -3.4563    0.0000 C   0  0  0  0  0  0  0  0  0  0  0  0
    7.7558   -2.3111    0.0000 C   0  0  0  0  0  0  0  0  0  0  0  0
    3.4563   -3.4563    0.0000 C   0  0  0  0  0  0  0  0  0  0  0  0
    8.4117   -1.1556    0.0000 C   0  0  0  0  0  0  0  0  0  0  0  0
    3.4563   -4.7888    0.0000 O   0  0  0  0  0  0  0  0  0  0  0  0
    2.3007   -2.7900    0.0000 C   0  0  0  0  0  0  0  0  0  0  0  0
    9.7442   -1.1556    0.0000 C   0  0  0  0  0  0  0  0  0  0  0  0
    1.1556   -3.4563    0.0000 C   0  0  0  0  0  0  0  0  0  0  0  0
    2.3007   -1.4679    0.0000 C   0  0  0  0  0  0  0  0  0  0  0  0
   10.4105   -0.0000    0.0000 C   0  0  0  0  0  0  0  0  0  0  0  0
   10.4105   -2.3111    0.0000 C   0  0  0  0  0  0  0  0  0  0  0  0
    0.0000   -2.7900    0.0000 C   0  0  0  0  0  0  0  0  0  0  0  0
    1.1556   -0.8016    0.0000 C   0  0  0  0  0  0  0  0  0  0  0  0
    3.4563   -0.8016    0.0000 N   0  0  0  0  0  0  0  0  0  0  0  0
    0.0000   -1.4679    0.0000 C   0  0  0  0  0  0  0  0  0  0  0  0
  1  2  1  0  0  0  0 
  1  3  1  0  0  0  0 
  1  4  1  0  0  0  0 
  1  5  1  0  0  0  0 
  3  6  2  0  0  0  0 
  4  7  1  0  0  0  0 
  5  8  1  0  0  0  0 
  7  9  1  0  0  0  0 
  8 10  2  0  0  0  0 
  8 11  1  0  0  0  0 
  9 12  2  0  0  0  0 
 11 13  2  0  0  0  0 
 11 14  1  0  0  0  0 
 12 15  1  0  0  0  0 
 12 16  1  0  0  0  0 
 13 17  1  0  0  0  0 
 18 14  2  0  0  0  0 
 14 19  1  0  0  0  0 
 17 20  2  0  0  0  0 
 20 18  1  0  0  0  0 
M  END
> <Name>
Anthranilic acid, 1,5-dimethyl-1-vinyl-4-hexenyl ester (8CI)

> <Source>
DSSTox2DMolFile

> <Tox>
1.808

> <CAS>
7149-26-0

$$$$

  CDK

 20 22  0  0  0  0  0  0  0  0999 V2000
   -2.1105   -0.6041    0.0000 O   0  0  0  0  0  0  0  0  0  0  0  0
   -1.3960   -0.1916    0.0000 C   0  0  0  0  0  0  0  0  0  0  0  0
   -0.6815   -0.6041    0.0000 O   0  0  0  0  0  0  0  0  0  0  0  0
   -1.3960    0.6334    0.0000 C   0  0  0  0  0  0  0  0  0  0  0  0
   -0.6815   -1.4291    0.0000 C   0  0  0  0  0  0  0  0  0  0  0  0
   -0.6815    1.0459    0.0000 C   0  0  0  0  0  0  0  0  0  0  0  0
   -2.1105    1.0459    0.0000 C   0  0  0  0  0  0  0  0  0  0  0  0
   -0.6815   -2.2541    0.0000 C   0  0  0  0  0  0  0  0  0  0  0  0
   -0.6815    1.8709    0.0000 C   0  0  0  0  0  0  0  0  0  0  0  0
    0.0330    0.6334    0.0000 C   0  0  0  0  0  0  0  0  0  0  0  0
   -2.1105    1.8709    0.0000 C   0  0  0  0  0  0  0  0  0  0  0  0
   -1.0940   -2.9685    0.0000 O   0  0  0  0  0  0  0  0  0  0  0  0
   -0.2690   -2.9685    0.0000 C   0  0  0  0  0  0  0  0  0  0  0  0
   -1.3960    2.2834    0.0000 C   0  0  0  0  0  0  0  0  0  0  0  0
    0.0330   -0.1916    0.0000 O   0  0  0  0  0  0  0  0  0  0  0  0
    0.7474    1.0459    0.0000 O   0  0  0  0  0  0  0  0  0  0  0  0
    1.4619    0.6334    0.0000 C   0  0  0  0  0  0  0  0  0  0  0  0
    2.1764    0.2209    0.0000 C   0  0  0  0  0  0  0  0  0  0  0  0
    2.5889   -0.4935    0.0000 O   0  0  0  0  0  0  0  0  0  0  0  0
    3.0014    0.2209    0.0000 C   0  0  0  0  0  0  0  0  0  0  0  0
  1  2  2  0  0  0  0 
  2  3  1  0  0  0  0 
  2  4  1  0  0  0  0 
  3  5  1  0  0  0  0 
  4  6  1  0  0  0  0 
  4  7  2  0  0  0  0 
  5  8  1  0  0  0  0 
  6  9  2  0  0  0  0 
  6 10  1  0  0  0  0 
 11  7  1  0  0  0  0 
  8 12  1  0  0  0  0 
  8 13  1  0  0  0  0 
  9 14  1  0  0  0  0 
 10 15  2  0  0  0  0 
 10 16  1  0  0  0  0 
 14 11  2  0  0  0  0 
 12 13  1  0  0  0  0 
 16 17  1  0  0  0  0 
 17 18  1  0  0  0  0 
 18 19  1  0  0  0  0 
 18 20  1  0  0  0  0 
 19 20  1  0  0  0  0 
M  END
> <Name>
Phthalic acid, bis(2,3-epoxypropyl) ester

> <Source>
Smiles

> <Tox>
2.349

> <CAS>
7195-45-1

$$$$

  CDK

 16 16  0  0  0  0  0  0  0  0999 V2000
    1.1435   -2.5628    0.0000 Cl  0  0  0  0  0  0  0  0  0  0  0  0
    1.1786   -1.7410    0.0000 C   0  0  0  0  0  0  0  0  0  0  0  0
    1.9132   -1.4094    0.0000 C   0  0  0  0  0  0  0  0  0  0  0  0
    0.5074   -1.2747    0.0000 C   0  0  0  0  0  0  0  0  0  0  0  0
    2.0078   -0.5736    0.0000 C   0  0  0  0  0  0  0  0  0  0  0  0
    0.5749   -0.4447    0.0000 C   0  0  0  0  0  0  0  0  0  0  0  0
    1.3312   -0.1075    0.0000 C   0  0  0  0  0  0  0  0  0  0  0  0
   -0.2236   -0.1849    0.0000 O   0  0  0  0  0  0  0  0  0  0  0  0
    1.9129    0.4851    0.0000 Cl  0  0  0  0  0  0  0  0  0  0  0  0
   -0.4258    0.6467    0.0000 P   0  0  0  0  0  0  0  0  0  0  0  0
   -0.9692    1.2646    0.0000 S   0  0  0  0  0  0  0  0  0  0  0  0
    0.1167    1.3013    0.0000 C   0  0  0  0  0  0  0  0  0  0  0  0
   -0.9935    0.0470    0.0000 O   0  0  0  0  0  0  0  0  0  0  0  0
    0.8768    0.9417    0.0000 C   0  0  0  0  0  0  0  0  0  0  0  0
   -1.8112    0.0976    0.0000 C   0  0  0  0  0  0  0  0  0  0  0  0
   -2.6300    0.1461    0.0000 C   0  0  0  0  0  0  0  0  0  0  0  0
  1  2  1  0  0  0  0 
  2  3  1  0  0  0  0 
  2  4  2  0  0  0  0 
  3  5  2  0  0  0  0 
  6  4  1  0  0  0  0 
  5  7  1  0  0  0  0 
  7  6  2  0  0  0  0 
  6  8  1  0  0  0  0 
  7  9  1  0  0  0  0 
  8 10  1  0  0  0  0 
 10 11  2  0  0  0  0 
 10 12  1  0  0  0  0 
 10 13  1  0  0  0  0 
 12 14  1  0  0  0  0 
 13 15  1  0  0  0  0 
 15 16  1  0  0  0  0 
M  END
> <Name>
Phosphonothioic acid, ethyl-, O-2,5-dichlorophenyl O-ethyl ester

> <Source>
Smiles

> <Tox>
4.197

> <CAS>
7260-35-7

$$$$

  CDK

 14 13  0  0  0  0  0  0  0  0999 V2000
    1.8730    0.4184   -0.1059 C   0  0  0  0  0  0  0  0  0  0  0  0
    0.5838   -0.3227   -0.1046 C   0  0  0  0  0  0  0  0  0  0  0  0
    2.0353    1.6246   -0.1052 O   0  0  0  0  0  0  0  0  0  0  0  0
    2.9407   -0.4263   -0.1131 O   0  0  0  0  0  0  0  0  0  0  0  0
   -0.5845    0.3249   -0.1111 C   0  0  0  0  0  0  0  0  0  0  0  0
    4.2770    0.1118   -0.1258 C   0  0  0  0  0  0  0  0  0  0  0  0
   -1.8732   -0.4172   -0.1093 C   0  0  0  0  0  0  0  0  0  0  0  0
    5.1371   -0.9674   -0.7755 C   0  0  0  0  0  0  0  0  0  0  0  0
    4.7421    0.4016    1.2965 C   0  0  0  0  0  0  0  0  0  0  0  0
   -2.0336   -1.6236   -0.1066 O   0  0  0  0  0  0  0  0  0  0  0  0
   -2.9418    0.4264   -0.1162 O   0  0  0  0  0  0  0  0  0  0  0  0
   -4.2777   -0.1129   -0.1250 C   0  0  0  0  0  0  0  0  0  0  0  0
   -5.1402    0.9655   -0.7726 C   0  0  0  0  0  0  0  0  0  0  0  0
   -4.7384   -0.4029    1.2987 C   0  0  0  0  0  0  0  0  0  0  0  0
  1  2  1  0  0  0  0 
  1  3  2  0  0  0  0 
  1  4  1  0  0  0  0 
  2  5  2  0  0  0  0 
  4  6  1  0  0  0  0 
  5  7  1  0  0  0  0 
  6  8  1  0  0  0  0 
  6  9  1  0  0  0  0 
  7 10  2  0  0  0  0 
  7 11  1  0  0  0  0 
 11 12  1  0  0  0  0 
 12 13  1  0  0  0  0 
 12 14  1  0  0  0  0 
M  END
> <Name>
2-Butenedioic acid (E)-, bis(1-methylethyl) ester (9CI)

> <Source>
DougDB3DMolFile

> <Tox>
1.790

> <CAS>
7283-70-7

$$$$

  CDK

 10  9  0  0  0  0  0  0  0  0999 V2000
    4.5962   -4.6563    0.0000 C   0  0  0  0  0  0  0  0  0  0  0  0
    4.5962   -6.0081    0.0000 N   0  0  0  0  0  0  0  0  0  0  0  0
    3.4487   -3.9894    0.0000 C   0  0  0  0  0  0  0  0  0  0  0  0
    3.4487   -2.6676    0.0000 N   0  0  0  0  0  0  0  0  0  0  0  0
    2.2891   -2.0187    0.0000 C   0  0  0  0  0  0  0  0  0  0  0  0
    4.5962   -1.9887    0.0000 C   0  0  0  0  0  0  0  0  0  0  0  0
    1.1415   -2.6676    0.0000 C   0  0  0  0  0  0  0  0  0  0  0  0
    4.5602   -0.6669    0.0000 C   0  0  0  0  0  0  0  0  0  0  0  0
    0.0000   -2.0187    0.0000 N   0  0  0  0  0  0  0  0  0  0  0  0
    5.7378   -0.0000    0.0000 N   0  0  0  0  0  0  0  0  0  0  0  0
  1  2  3  0  0  0  0 
  1  3  1  0  0  0  0 
  3  4  1  0  0  0  0 
  5  4  1  0  0  0  0 
  6  4  1  0  0  0  0 
  7  5  1  0  0  0  0 
  8  6  1  0  0  0  0 
  7  9  3  0  0  0  0 
  8 10  3  0  0  0  0 
M  END
> <Name>
Acetonitrile, 2,2',2''-nitrilotris-

> <Source>
DSSTox2DMolFile

> <Tox>
3.429

> <CAS>
7327-60-8

$$$$

  CDK

 26 26  0  0  0  0  0  0  0  0999 V2000
    1.7102   -0.0598    0.0000 O   0  0  0  0  0  0  0  0  0  0  0  0
    0.9188   -0.3770    0.0000 P   0  0  0  0  0  0  0  0  0  0  0  0
    2.0070    0.7348    0.0000 C   0  0  0  0  0  0  0  0  0  0  0  0
    0.8590   -1.2122    0.0000 O   0  0  0  0  0  0  0  0  0  0  0  0
    0.1833    0.0484    0.0000 O   0  0  0  0  0  0  0  0  0  0  0  0
    1.8645    1.5787    0.0000 C   0  0  0  0  0  0  0  0  0  0  0  0
    0.1729   -1.6802    0.0000 C   0  0  0  0  0  0  0  0  0  0  0  0
   -0.0997    0.8537    0.0000 C   0  0  0  0  0  0  0  0  0  0  0  0
    2.5209    2.1317    0.0000 C   0  0  0  0  0  0  0  0  0  0  0  0
    0.9992    1.6057    0.0000 C   0  0  0  0  0  0  0  0  0  0  0  0
   -0.5541   -2.0857    0.0000 C   0  0  0  0  0  0  0  0  0  0  0  0
    0.6410    1.2361    0.0000 C   0  0  0  0  0  0  0  0  0  0  0  0
   -0.7827    1.3202    0.0000 C   0  0  0  0  0  0  0  0  0  0  0  0
    3.1200    2.7359    0.0000 C   0  0  0  0  0  0  0  0  0  0  0  0
    0.2812    2.0604    0.0000 C   0  0  0  0  0  0  0  0  0  0  0  0
   -1.2821   -2.4954    0.0000 C   0  0  0  0  0  0  0  0  0  0  0  0
    0.7131    2.0568    0.0000 C   0  0  0  0  0  0  0  0  0  0  0  0
   -0.7204    2.1461    0.0000 C   0  0  0  0  0  0  0  0  0  0  0  0
    3.5758    3.4501    0.0000 C   0  0  0  0  0  0  0  0  0  0  0  0
   -2.0051   -2.9125    0.0000 C   0  0  0  0  0  0  0  0  0  0  0  0
    0.0453    2.5210    0.0000 C   0  0  0  0  0  0  0  0  0  0  0  0
    4.0002    4.1753    0.0000 C   0  0  0  0  0  0  0  0  0  0  0  0
   -2.7289   -3.3304    0.0000 C   0  0  0  0  0  0  0  0  0  0  0  0
   -3.4546   -3.7494    0.0000 C   0  0  0  0  0  0  0  0  0  0  0  0
   -4.1810   -4.1688    0.0000 C   0  0  0  0  0  0  0  0  0  0  0  0
   -4.9047   -4.5866    0.0000 C   0  0  0  0  0  0  0  0  0  0  0  0
  1  2  1  0  0  0  0 
  1  3  1  0  0  0  0 
  2  4  1  0  0  0  0 
  2  5  1  0  0  0  0 
  3  6  1  0  0  0  0 
  4  7  1  0  0  0  0 
  5  8  1  0  0  0  0 
  6  9  1  0  0  0  0 
  6 10  1  0  0  0  0 
  7 11  1  0  0  0  0 
  8 12  1  0  0  0  0 
  8 13  2  0  0  0  0 
  9 14  1  0  0  0  0 
 10 15  1  0  0  0  0 
 11 16  1  0  0  0  0 
 12 17  2  0  0  0  0 
 18 13  1  0  0  0  0 
 14 19  1  0  0  0  0 
 16 20  1  0  0  0  0 
 17 21  1  0  0  0  0 
 21 18  2  0  0  0  0 
 19 22  1  0  0  0  0 
 20 23  1  0  0  0  0 
 23 24  1  0  0  0  0 
 24 25  1  0  0  0  0 
 25 26  1  0  0  0  0 
M  END
> <Name>
Phosphorous acid, 2-ethylhexyl octyl phenyl ester

> <Source>
Smiles

> <Tox>
1.738

> <CAS>
7346-61-4

$$$$

  CDK

 20 20  0  0  0  0  0  0  0  0999 V2000
    4.2926    1.5473    0.0000 C   0  0  0  0  0  0  0  0  0  0  0  0
    3.4440    2.0465    0.0000 O   0  0  0  0  0  0  0  0  0  0  0  0
    5.1411    2.0465    0.0000 C   0  0  0  0  0  0  0  0  0  0  0  0
    2.5955    1.4974    0.0000 C   0  0  0  0  0  0  0  0  0  0  0  0
    6.0396    1.5473    0.0000 N   0  0  0  0  0  0  0  0  0  0  0  0
    5.1411    3.0447    0.0000 O   0  0  0  0  0  0  0  0  0  0  0  0
    1.6971    2.0465    0.0000 C   0  0  0  0  0  0  0  0  0  0  0  0
    2.5955    0.5491    0.0000 C   0  0  0  0  0  0  0  0  0  0  0  0
    6.8881    2.0964    0.0000 C   0  0  0  0  0  0  0  0  0  0  0  0
    1.6971    3.0447    0.0000 Cl  0  0  0  0  0  0  0  0  0  0  0  0
    0.8485    1.5473    0.0000 C   0  0  0  0  0  0  0  0  0  0  0  0
    1.6971    0.0499    0.0000 C   0  0  0  0  0  0  0  0  0  0  0  0
    6.8881    3.0447    0.0000 C   0  0  0  0  0  0  0  0  0  0  0  0
    7.7865    1.5473    0.0000 C   0  0  0  0  0  0  0  0  0  0  0  0
    0.8485    0.4991    0.0000 C   0  0  0  0  0  0  0  0  0  0  0  0
    6.0396    3.5439    0.0000 C   0  0  0  0  0  0  0  0  0  0  0  0
    7.7366    3.5439    0.0000 C   0  0  0  0  0  0  0  0  0  0  0  0
    7.7865    0.5491    0.0000 O   0  0  0  0  0  0  0  0  0  0  0  0
    8.6351    2.0964    0.0000 O   0  0  0  0  0  0  0  0  0  0  0  0
    0.0000    0.0000    0.0000 Cl  0  0  0  0  0  0  0  0  0  0  0  0
  1  2  1  0  0  0  0 
  1  3  1  0  0  0  0 
  2  4  1  0  0  0  0 
  3  5  1  0  0  0  0 
  3  6  2  0  0  0  0 
  7  4  2  0  0  0  0 
  4  8  1  0  0  0  0 
  5  9  1  0  0  0  0 
  7 10  1  0  0  0  0 
 11  7  1  0  0  0  0 
  8 12  2  0  0  0  0 
  9 13  1  0  0  0  0 
  9 14  1  0  0  0  0 
 15 11  2  0  0  0  0 
 12 15  1  0  0  0  0 
 13 16  1  0  0  0  0 
 13 17  1  0  0  0  0 
 14 18  1  0  0  0  0 
 14 19  2  0  0  0  0 
 15 20  1  0  0  0  0 
M  END
> <Name>
L-Valine, N-((2,4-dichlorophenoxy)acetyl)- (9CI)

> <Source>
NIST2DMolFile

> <Tox>
2.630

> <CAS>
7407-66-1

$$$$

  CDK

 11 10  0  0  0  0  0  0  0  0999 V2000
    4.8369    0.0444   -0.3929 C   0  0  0  0  0  0  0  0  0  0  0  0
    3.6468   -0.8234    0.0426 C   0  0  0  0  0  0  0  0  0  0  0  0
    5.1139    1.0887    0.4990 O   0  0  0  0  0  0  0  0  0  0  0  0
    2.4684   -0.0899   -0.2524 O   0  0  0  0  0  0  0  0  0  0  0  0
    1.2811   -0.7481    0.1641 C   0  0  0  0  0  0  0  0  0  0  0  0
    0.1116    0.1432   -0.2444 C   0  0  0  0  0  0  0  0  0  0  0  0
   -1.2063   -0.4889    0.1725 C   0  0  0  0  0  0  0  0  0  0  0  0
   -2.3856    0.3816   -0.2306 C   0  0  0  0  0  0  0  0  0  0  0  0
   -3.7046   -0.2473    0.1879 C   0  0  0  0  0  0  0  0  0  0  0  0
   -4.8857    0.6195   -0.2187 C   0  0  0  0  0  0  0  0  0  0  0  0
   -6.1988   -0.0032    0.1986 C   0  0  0  0  0  0  0  0  0  0  0  0
  1  2  1  0  0  0  0 
  1  3  1  0  0  0  0 
  2  4  1  0  0  0  0 
  4  5  1  0  0  0  0 
  5  6  1  0  0  0  0 
  6  7  1  0  0  0  0 
  7  8  1  0  0  0  0 
  8  9  1  0  0  0  0 
  9 10  1  0  0  0  0 
 10 11  1  0  0  0  0 
M  END
> <Name>
Ethanol, 2-(heptyloxy)-

> <Source>
DougDB3DMolFile

> <Tox>
1.847

> <CAS>
7409-44-1

$$$$

  CDK

 12 12  0  0  0  0  0  0  0  0999 V2000
    7.7000    1.2124    0.0000 C   0  0  0  0  0  0  0  0  0  0  0  0
    6.3000    1.2124    0.0000 C   0  0  0  0  0  0  0  0  0  0  0  0
    8.4000    2.4249    0.0000 O   0  0  0  0  0  0  0  0  0  0  0  0
    5.6000    0.0000    0.0000 C   0  0  0  0  0  0  0  0  0  0  0  0
    5.6000    2.4249    0.0000 C   0  0  0  0  0  0  0  0  0  0  0  0
    4.2000    0.0000    0.0000 C   0  0  0  0  0  0  0  0  0  0  0  0
    4.2000    2.4249    0.0000 C   0  0  0  0  0  0  0  0  0  0  0  0
    3.5000    1.2124    0.0000 C   0  0  0  0  0  0  0  0  0  0  0  0
    2.1000    1.2124    0.0000 N   0  0  0  0  0  0  0  0  0  0  0  0
    1.4000    2.4249    0.0000 C   0  0  0  0  0  0  0  0  0  0  0  0
    1.4000    0.0000    0.0000 N   0  0  0  0  0  0  0  0  0  0  0  0
    0.0000    0.0000    0.0000 O   0  0  0  0  0  0  0  0  0  0  0  0
  1  2  1  0  0  0  0 
  1  3  2  0  0  0  0 
  2  4  1  0  0  0  0 
  2  5  2  0  0  0  0 
  4  6  2  0  0  0  0 
  7  5  1  0  0  0  0 
  6  8  1  0  0  0  0 
  8  7  2  0  0  0  0 
  8  9  1  0  0  0  0 
  9 10  1  0  0  0  0 
  9 11  1  0  0  0  0 
 11 12  2  0  0  0  0 
M  END
> <Name>
Benzaldehyde, 4-(N-nitrosomethylamino)-

> <Source>
Name2DMolFile

> <Tox>
1.914

> <CAS>
7431-19-8

$$$$

  CDK

 12 12  0  0  0  0  0  0  0  0999 V2000
   -0.7969    0.6619   -0.4054 C   0  0  0  0  0  0  0  0  0  0  0  0
   -1.8786   -0.2627    0.2177 C   0  0  0  0  0  0  0  0  0  0  0  0
   -1.1002    1.6366   -1.0634 O   0  0  0  0  0  0  0  0  0  0  0  0
    0.6340    0.2966   -0.1872 C   0  0  0  0  0  0  0  0  0  0  0  0
   -3.1233    0.5407    0.6124 C   0  0  0  0  0  0  0  0  0  0  0  0
   -2.2386   -1.3326   -0.8189 C   0  0  0  0  0  0  0  0  0  0  0  0
   -1.3759   -0.9626    1.3470 O   0  0  0  0  0  0  0  0  0  0  0  0
    1.5081    1.2170    0.3915 C   0  0  0  0  0  0  0  0  0  0  0  0
    1.1048   -0.9525   -0.5943 C   0  0  0  0  0  0  0  0  0  0  0  0
    2.8458    0.8816    0.5706 C   0  0  0  0  0  0  0  0  0  0  0  0
    2.4446   -1.2787   -0.4199 C   0  0  0  0  0  0  0  0  0  0  0  0
    3.3146   -0.3634    0.1643 C   0  0  0  0  0  0  0  0  0  0  0  0
  1  2  1  0  0  0  0 
  1  3  2  0  0  0  0 
  1  4  1  0  0  0  0 
  2  5  1  0  0  0  0 
  2  6  1  0  0  0  0 
  2  7  1  0  0  0  0 
  4  8  1  0  0  0  0 
  4  9  2  0  0  0  0 
  8 10  2  0  0  0  0 
 11  9  1  0  0  0  0 
 10 12  1  0  0  0  0 
 12 11  2  0  0  0  0 
M  END
> <Name>
1-Propanone, 2-hydroxy-2-methyl-1-phenyl-

> <Source>
DougDB3DMolFile

> <Tox>
1.986

> <CAS>
7473-98-5

$$$$

  CDK

 15 15  0  0  0  0  0  0  0  0999 V2000
   -3.0035   -2.2011    0.9829 C   0  0  0  0  0  0  0  0  0  0  0  0
   -1.8090   -2.4465    0.0879 C   0  0  0  0  0  0  0  0  0  0  0  0
   -0.8003   -1.2974    0.1433 C   0  0  0  0  0  0  0  0  0  0  0  0
   -1.3888   -0.0444   -0.5116 C   0  0  0  0  0  0  0  0  0  0  0  0
    0.5102   -1.7064   -0.5360 C   0  0  0  0  0  0  0  0  0  0  0  0
   -1.6230    1.1125    0.4343 C   0  0  0  0  0  0  0  0  0  0  0  0
   -1.6466    0.0014   -1.6986 O   0  0  0  0  0  0  0  0  0  0  0  0
    1.6265   -0.7634   -0.2182 C   0  0  0  0  0  0  0  0  0  0  0  0
   -2.2493    2.3362   -0.2101 C   0  0  0  0  0  0  0  0  0  0  0  0
    2.1148    0.1086   -1.1920 C   0  0  0  0  0  0  0  0  0  0  0  0
    2.2008   -0.7637    1.0548 C   0  0  0  0  0  0  0  0  0  0  0  0
   -2.4538    3.4411    0.8021 C   0  0  0  0  0  0  0  0  0  0  0  0
    3.1643    0.9711   -0.8932 C   0  0  0  0  0  0  0  0  0  0  0  0
    3.2481    0.1005    1.3498 C   0  0  0  0  0  0  0  0  0  0  0  0
    3.7314    0.9690    0.3763 C   0  0  0  0  0  0  0  0  0  0  0  0
  1  2  1  0  0  0  0 
  2  3  1  0  0  0  0 
  3  4  1  0  0  0  0 
  3  5  1  0  0  0  0 
  4  6  1  0  0  0  0 
  4  7  2  0  0  0  0 
  5  8  1  0  0  0  0 
  6  9  1  0  0  0  0 
  8 10  1  0  0  0  0 
  8 11  2  0  0  0  0 
  9 12  1  0  0  0  0 
 10 13  2  0  0  0  0 
 14 11  1  0  0  0  0 
 13 15  1  0  0  0  0 
 15 14  2  0  0  0  0 
M  END
> <Name>
4-Heptanone, 3-(phenylmethyl)-

> <Source>
DougDB3DMolFile

> <Tox>
1.667

> <CAS>
7492-37-7

$$$$

  CDK

 14 14  0  0  0  0  0  0  0  0999 V2000
    1.6474    2.3876   -0.3448 C   0  0  0  0  0  0  0  0  0  0  0  0
    0.7467    1.2348   -0.0409 C   0  0  0  0  0  0  0  0  0  0  0  0
    2.5247    2.7670    0.3961 O   0  0  0  0  0  0  0  0  0  0  0  0
   -0.5405    1.3535   -0.4061 C   0  0  0  0  0  0  0  0  0  0  0  0
    1.3619    0.0747    0.6631 C   0  0  0  0  0  0  0  0  0  0  0  0
   -1.6450    0.4239   -0.1906 C   0  0  0  0  0  0  0  0  0  0  0  0
    2.3003   -0.6954   -0.2586 C   0  0  0  0  0  0  0  0  0  0  0  0
   -1.4835   -0.9625   -0.1451 C   0  0  0  0  0  0  0  0  0  0  0  0
   -2.9330    0.9616   -0.0562 C   0  0  0  0  0  0  0  0  0  0  0  0
    2.9300   -1.8751    0.4648 C   0  0  0  0  0  0  0  0  0  0  0  0
   -2.5844   -1.7951    0.0247 C   0  0  0  0  0  0  0  0  0  0  0  0
   -4.0278    0.1275    0.1237 C   0  0  0  0  0  0  0  0  0  0  0  0
    3.8684   -2.6410   -0.4400 C   0  0  0  0  0  0  0  0  0  0  0  0
   -3.8569   -1.2536    0.1602 C   0  0  0  0  0  0  0  0  0  0  0  0
  1  2  1  0  0  0  0 
  1  3  2  0  0  0  0 
  2  4  2  0  0  0  0 
  2  5  1  0  0  0  0 
  4  6  1  0  0  0  0 
  5  7  1  0  0  0  0 
  6  8  1  0  0  0  0 
  6  9  2  0  0  0  0 
  7 10  1  0  0  0  0 
  8 11  2  0  0  0  0 
 12  9  1  0  0  0  0 
 10 13  1  0  0  0  0 
 11 14  1  0  0  0  0 
 14 12  2  0  0  0  0 
M  END
> <Name>
Hexanal, 2-(phenylmethylene)-

> <Source>
DougDB3DMolFile

> <Tox>
1.631

> <CAS>
7492-44-6

$$$$

  CDK

 14 14  0  0  0  0  0  0  0  0999 V2000
    7.8437    1.3842    0.0000 C   0  0  0  0  0  0  0  0  0  0  0  0
    6.9722    0.9228    0.0000 C   0  0  0  0  0  0  0  0  0  0  0  0
    7.8437    2.4095    0.0000 C   0  0  0  0  0  0  0  0  0  0  0  0
    6.1007    1.3842    0.0000 C   0  0  0  0  0  0  0  0  0  0  0  0
    6.9722    2.9734    0.0000 C   0  0  0  0  0  0  0  0  0  0  0  0
    6.1007    2.4095    0.0000 C   0  0  0  0  0  0  0  0  0  0  0  0
    5.2292    0.9228    0.0000 O   0  0  0  0  0  0  0  0  0  0  0  0
    4.3064    1.3842    0.0000 C   0  0  0  0  0  0  0  0  0  0  0  0
    3.5374    0.9228    0.0000 C   0  0  0  0  0  0  0  0  0  0  0  0
    2.6146    1.4355    0.0000 O   0  0  0  0  0  0  0  0  0  0  0  0
    3.5374    0.0000    0.0000 O   0  0  0  0  0  0  0  0  0  0  0  0
    1.7431    0.9228    0.0000 C   0  0  0  0  0  0  0  0  0  0  0  0
    0.8203    1.4355    0.0000 C   0  0  0  0  0  0  0  0  0  0  0  0
    0.0000    0.9741    0.0000 C   0  0  0  0  0  0  0  0  0  0  0  0
  1  2  2  0  0  0  0 
  3  1  1  0  0  0  0 
  2  4  1  0  0  0  0 
  5  3  2  0  0  0  0 
  4  6  2  0  0  0  0 
  4  7  1  0  0  0  0 
  6  5  1  0  0  0  0 
  7  8  1  0  0  0  0 
  8  9  1  0  0  0  0 
  9 10  1  0  0  0  0 
  9 11  2  0  0  0  0 
 12 10  1  0  0  0  0 
 12 13  1  0  0  0  0 
 13 14  2  0  0  0  0 
M  END
> <Name>
Acetic acid, phenoxy-, 2-propenyl ester

> <Source>
NIST2DMolFile

> <Tox>
2.565

> <CAS>
7493-74-5

$$$$

  CDK

 10  9  0  0  0  0  0  0  0  0999 V2000
   -0.0036   -0.5761    0.0001 C   0  0  0  0  0  0  0  0  0  0  0  0
   -1.1603    0.0973    0.1580 N   0  0  0  0  0  0  0  0  0  0  0  0
    1.1514    0.0975   -0.1579 O   0  0  0  0  0  0  0  0  0  0  0  0
   -0.0024   -1.7912    0.0054 O   0  0  0  0  0  0  0  0  0  0  0  0
   -2.4170   -0.6357    0.3299 C   0  0  0  0  0  0  0  0  0  0  0  0
    2.3976   -0.6280   -0.3280 C   0  0  0  0  0  0  0  0  0  0  0  0
   -3.5697    0.3580    0.4871 C   0  0  0  0  0  0  0  0  0  0  0  0
    3.5494    0.3667   -0.4856 C   0  0  0  0  0  0  0  0  0  0  0  0
   -3.6530    1.1793   -0.6794 O   0  0  0  0  0  0  0  0  0  0  0  0
    3.6320    1.1886    0.6805 O   0  0  0  0  0  0  0  0  0  0  0  0
  1  2  1  0  0  0  0 
  1  3  1  0  0  0  0 
  1  4  2  0  0  0  0 
  2  5  1  0  0  0  0 
  3  6  1  0  0  0  0 
  5  7  1  0  0  0  0 
  6  8  1  0  0  0  0 
  7  9  1  0  0  0  0 
  8 10  1  0  0  0  0 
M  END
> <Name>
Carbamic acid, (2-hydroxyethyl)-, 2-hydroxyethyl ester

> <Source>
NIH3DMolFile

> <Tox>
1.467

> <CAS>
7506-80-1

$$$$

  CDK

 17 18  0  0  0  0  0  0  0  0999 V2000
    4.1250    2.1508    0.0000 C   0  0  0  0  0  0  0  0  0  0  0  0
    4.1286    1.1538    0.0000 C   0  0  0  0  0  0  0  0  0  0  0  0
    4.9895    2.6581    0.0000 C   0  0  0  0  0  0  0  0  0  0  0  0
    3.6118    3.0133    0.0000 O   0  0  0  0  0  0  0  0  0  0  0  0
    4.9940    0.6558    0.0000 C   0  0  0  0  0  0  0  0  0  0  0  0
    5.8586    2.1630    0.0000 C   0  0  0  0  0  0  0  0  0  0  0  0
    2.6126    3.0034    0.0000 P   0  0  0  0  0  0  0  0  0  0  0  0
    5.8645    1.1608    0.0000 C   0  0  0  0  0  0  0  0  0  0  0  0
    1.6388    3.0133    0.0000 O   0  0  0  0  0  0  0  0  0  0  0  0
    2.6076    2.0041    0.0000 O   0  0  0  0  0  0  0  0  0  0  0  0
    2.5919    4.0074    0.0000 C   0  0  0  0  0  0  0  0  0  0  0  0
    1.7319    1.5020    0.0000 C   0  0  0  0  0  0  0  0  0  0  0  0
    0.8698    2.0019    0.0000 C   0  0  0  0  0  0  0  0  0  0  0  0
    1.7333    0.5000    0.0000 C   0  0  0  0  0  0  0  0  0  0  0  0
    0.0034    1.5064    0.0000 C   0  0  0  0  0  0  0  0  0  0  0  0
    0.8676    0.0000    0.0000 C   0  0  0  0  0  0  0  0  0  0  0  0
    0.0000    0.5006    0.0000 C   0  0  0  0  0  0  0  0  0  0  0  0
  1  2  1  0  0  0  0 
  3  1  2  0  0  0  0 
  4  1  1  0  0  0  0 
  2  5  2  0  0  0  0 
  6  3  1  0  0  0  0 
  7  4  1  0  0  0  0 
  5  8  1  0  0  0  0 
  8  6  2  0  0  0  0 
  7  9  2  0  0  0  0 
  7 10  1  0  0  0  0 
  7 11  1  0  0  0  0 
 10 12  1  0  0  0  0 
 12 13  1  0  0  0  0 
 14 12  2  0  0  0  0 
 13 15  2  0  0  0  0 
 16 14  1  0  0  0  0 
 15 17  1  0  0  0  0 
 17 16  2  0  0  0  0 
M  END
> <Name>
Phosphonic acid, methyl-, diphenyl ester

> <Source>
NIST2DMolFile

> <Tox>
3.027

> <CAS>
7526-26-3

$$$$

  CDK

 17 19  0  0  0  0  0  0  0  0999 V2000
    4.1528    1.0007    0.0000 C   0  0  0  0  0  0  0  0  0  0  0  0
    3.5524    1.8012    0.0000 N   0  0  0  0  0  0  0  0  0  0  0  0
    3.5524    0.2001    0.0000 N   0  0  0  0  0  0  0  0  0  0  0  0
    5.1034    0.9506    0.0000 C   0  0  0  0  0  0  0  0  0  0  0  0
    2.6518    1.5510    0.0000 C   0  0  0  0  0  0  0  0  0  0  0  0
    2.6518    0.5003    0.0000 C   0  0  0  0  0  0  0  0  0  0  0  0
    5.6038    0.0500    0.0000 C   0  0  0  0  0  0  0  0  0  0  0  0
    5.6538    1.8012    0.0000 C   0  0  0  0  0  0  0  0  0  0  0  0
    1.7512    2.0013    0.0000 C   0  0  0  0  0  0  0  0  0  0  0  0
    1.7512    0.0000    0.0000 C   0  0  0  0  0  0  0  0  0  0  0  0
    6.5544    0.0000    0.0000 C   0  0  0  0  0  0  0  0  0  0  0  0
    6.6545    1.7512    0.0000 C   0  0  0  0  0  0  0  0  0  0  0  0
    0.9006    1.5510    0.0000 C   0  0  0  0  0  0  0  0  0  0  0  0
    0.9006    0.5003    0.0000 C   0  0  0  0  0  0  0  0  0  0  0  0
    7.1048    0.8506    0.0000 C   0  0  0  0  0  0  0  0  0  0  0  0
    0.0000    2.0013    0.0000 N   0  0  0  0  0  0  0  0  0  0  0  0
    8.1555    0.8506    0.0000 N   0  0  0  0  0  0  0  0  0  0  0  0
  2  1  2  0  0  0  0 
  1  3  1  0  0  0  0 
  1  4  1  0  0  0  0 
  5  2  1  0  0  0  0 
  3  6  1  0  0  0  0 
  7  4  2  0  0  0  0 
  4  8  1  0  0  0  0 
  6  5  2  0  0  0  0 
  9  5  1  0  0  0  0 
  6 10  1  0  0  0  0 
 11  7  1  0  0  0  0 
  8 12  2  0  0  0  0 
 13  9  2  0  0  0  0 
 10 14  2  0  0  0  0 
 15 11  2  0  0  0  0 
 12 15  1  0  0  0  0 
 13 16  1  0  0  0  0 
 14 13  1  0  0  0  0 
 15 17  1  0  0  0  0 
M  END
> <Name>
1H-Benzimidazol-5-amine, 2-(4-aminophenyl)-

> <Source>
NIST2DMolFile

> <Tox>
1.652

> <CAS>
7621-86-5

$$$$

  CDK

 11 10  0  0  0  0  0  0  0  0999 V2000
    2.6196    1.3602    0.0000 N   0  0  0  0  0  0  0  0  0  0  0  0
    1.7632    0.8564    0.0000 Si  0  0  0  0  0  0  0  0  0  0  0  0
    3.4761    0.8564    0.0000 Si  0  0  0  0  0  0  0  0  0  0  0  0
    0.8564    0.3526    0.0000 C   0  0  0  0  0  0  0  0  0  0  0  0
    2.2670    0.0000    0.0000 C   0  0  0  0  0  0  0  0  0  0  0  0
    1.2594    1.7128    0.0000 C   0  0  0  0  0  0  0  0  0  0  0  0
    4.3829    0.4030    0.0000 C   0  0  0  0  0  0  0  0  0  0  0  0
    3.9798    1.7128    0.0000 C   0  0  0  0  0  0  0  0  0  0  0  0
    2.9723    0.0000    0.0000 C   0  0  0  0  0  0  0  0  0  0  0  0
    0.0000    0.8564    0.0000 C   0  0  0  0  0  0  0  0  0  0  0  0
    5.2393    0.9068    0.0000 C   0  0  0  0  0  0  0  0  0  0  0  0
  1  2  1  0  0  0  0 
  1  3  1  0  0  0  0 
  2  4  1  0  0  0  0 
  2  5  1  0  0  0  0 
  2  6  1  0  0  0  0 
  3  7  1  0  0  0  0 
  3  8  1  0  0  0  0 
  3  9  1  0  0  0  0 
  4 10  2  0  0  0  0 
  7 11  2  0  0  0  0 
M  END
> <Name>
Silanamine, 1-ethenyl-N-(ethenyldimethylsilyl)-1,1-dimethyl-

> <Source>
NIST2DMolFile

> <Tox>
2.599

> <CAS>
7691-02-3

$$$$

  CDK

 14 13  0  0  0  0  0  0  0  0999 V2000
    2.3108   -1.3310    0.0000 C   0  0  0  0  0  0  0  0  0  0  0  0
    3.4662   -1.9873    0.0000 C   0  0  0  0  0  0  0  0  0  0  0  0
    1.1554   -1.9873    0.0000 O   0  0  0  0  0  0  0  0  0  0  0  0
    2.3108   -0.0000    0.0000 O   0  0  0  0  0  0  0  0  0  0  0  0
    4.6216   -1.3310    0.0000 C   0  0  0  0  0  0  0  0  0  0  0  0
    0.0000   -1.3310    0.0000 C   0  0  0  0  0  0  0  0  0  0  0  0
    4.6216   -0.0000    0.0000 C   0  0  0  0  0  0  0  0  0  0  0  0
    5.7769   -1.9873    0.0000 O   0  0  0  0  0  0  0  0  0  0  0  0
    6.9323   -1.3310    0.0000 P   0  0  0  0  0  0  0  0  0  0  0  0
    6.2576   -0.1756    0.0000 O   0  0  0  0  0  0  0  0  0  0  0  0
    7.5886   -2.4864    0.0000 O   0  0  0  0  0  0  0  0  0  0  0  0
    8.0877   -0.6563    0.0000 O   0  0  0  0  0  0  0  0  0  0  0  0
    6.9323   -3.6233    0.0000 C   0  0  0  0  0  0  0  0  0  0  0  0
    9.2431   -1.3310    0.0000 C   0  0  0  0  0  0  0  0  0  0  0  0
  1  2  1  0  0  0  0 
  1  3  1  0  0  0  0 
  1  4  2  0  0  0  0 
  2  5  2  0  0  0  0 
  3  6  1  0  0  0  0 
  5  7  1  0  0  0  0 
  5  8  1  0  0  0  0 
  8  9  1  0  0  0  0 
  9 10  2  0  0  0  0 
  9 11  1  0  0  0  0 
  9 12  1  0  0  0  0 
 11 13  1  0  0  0  0 
 12 14  1  0  0  0  0 
M  END
> <Name>
2-Butenoic acid, 3-((dimethoxyphosphinyl)oxy)-, methyl ester

> <Source>
DSSTox2DMolFile

> <Tox>
4.873

> <CAS>
7786-34-7

$$$$

  CDK

  8  7  0  0  0  0  0  0  0  0999 V2000
    2.4286    0.3913    0.2332 C   0  0  0  0  0  0  0  0  0  0  0  0
    1.1283    0.9897   -0.3243 C   0  0  0  0  0  0  0  0  0  0  0  0
    2.6171   -0.9488   -0.1313 O   0  0  0  0  0  0  0  0  0  0  0  0
    0.0578    0.4430    0.4287 O   0  0  0  0  0  0  0  0  0  0  0  0
   -1.1893    0.4097   -0.2707 C   0  0  0  0  0  0  0  0  0  0  0  0
   -1.9838   -0.7727    0.3016 C   0  0  0  0  0  0  0  0  0  0  0  0
   -1.9446    1.7207   -0.0651 C   0  0  0  0  0  0  0  0  0  0  0  0
   -1.4495   -2.1053   -0.1730 C   0  0  0  0  0  0  0  0  0  0  0  0
  1  2  1  0  0  0  0 
  1  3  1  0  0  0  0 
  2  4  1  0  0  0  0 
  4  5  1  0  0  0  0 
  5  6  1  0  0  0  0 
  5  7  1  0  0  0  0 
  6  8  1  0  0  0  0 
M  END
> <Name>
Ethanol, 2-sec-butoxy-

> <Source>
DougDB3DMolFile

> <Tox>
2.175

> <CAS>
7795-91-7

$$$$

  CDK

  7  7  0  0  0  0  0  0  0  0999 V2000
    4.6755   -1.6364    0.0000 O   0  0  0  0  0  0  0  0  0  0  0  0
    3.4085   -1.2484    0.0000 C   0  0  0  0  0  0  0  0  0  0  0  0
    2.3518   -2.0666    0.0000 C   0  0  0  0  0  0  0  0  0  0  0  0
    2.9643   -0.0000    0.0000 N   0  0  0  0  0  0  0  0  0  0  0  0
    1.2671   -1.3138    0.0000 C   0  0  0  0  0  0  0  0  0  0  0  0
    1.6318   -0.0327    0.0000 O   0  0  0  0  0  0  0  0  0  0  0  0
    0.0000   -1.7440    0.0000 C   0  0  0  0  0  0  0  0  0  0  0  0
  1  2  2  0  0  0  0 
  2  3  1  0  0  0  0 
  2  4  1  0  0  0  0 
  3  5  2  0  0  0  0 
  6  4  1  0  0  0  0 
  5  6  1  0  0  0  0 
  5  7  1  0  0  0  0 
M  END
> <Name>
3(2H)-Isoxazolone, 5-methyl- (8CI)(9CI)

> <Source>
DSSTox2DMolFile

> <Tox>
1.503

> <CAS>
10004-44-1

$$$$

  CDK

 32 31  0  0  0  0  0  0  0  0999 V2000
   -2.2246    0.6784    0.0000 O   0  0  0  0  0  0  0  0  0  0  0  0
   -2.8482    0.1383    0.0000 C   0  0  0  0  0  0  0  0  0  0  0  0
   -3.6278    0.4084    0.0000 O   0  0  0  0  0  0  0  0  0  0  0  0
   -2.6923   -0.6718    0.0000 C   0  0  0  0  0  0  0  0  0  0  0  0
   -3.7837    1.2185    0.0000 C   0  0  0  0  0  0  0  0  0  0  0  0
   -2.5364   -1.4820    0.0000 C   0  0  0  0  0  0  0  0  0  0  0  0
   -3.9396    2.0286    0.0000 C   0  0  0  0  0  0  0  0  0  0  0  0
   -2.3805   -2.2921    0.0000 C   0  0  0  0  0  0  0  0  0  0  0  0
   -4.0955    2.8388    0.0000 O   0  0  0  0  0  0  0  0  0  0  0  0
   -2.2246   -3.1022    0.0000 C   0  0  0  0  0  0  0  0  0  0  0  0
   -3.4719    3.3789    0.0000 C   0  0  0  0  0  0  0  0  0  0  0  0
   -2.0687   -3.9124    0.0000 C   0  0  0  0  0  0  0  0  0  0  0  0
   -2.8482    3.9189    0.0000 C   0  0  0  0  0  0  0  0  0  0  0  0
   -1.9128   -4.7225    0.0000 C   0  0  0  0  0  0  0  0  0  0  0  0
   -2.2246    4.4590    0.0000 O   0  0  0  0  0  0  0  0  0  0  0  0
   -1.7568   -5.5326    0.0000 C   0  0  0  0  0  0  0  0  0  0  0  0
   -1.4450    4.1890    0.0000 C   0  0  0  0  0  0  0  0  0  0  0  0
   -1.6009   -6.3428    0.0000 C   0  0  0  0  0  0  0  0  0  0  0  0
   -0.6655    3.9189    0.0000 C   0  0  0  0  0  0  0  0  0  0  0  0
   -1.4450   -7.1529    0.0000 C   0  0  0  0  0  0  0  0  0  0  0  0
    0.1141    3.6489    0.0000 O   0  0  0  0  0  0  0  0  0  0  0  0
    0.2700    2.8388    0.0000 C   0  0  0  0  0  0  0  0  0  0  0  0
   -0.3537    2.2987    0.0000 O   0  0  0  0  0  0  0  0  0  0  0  0
    1.0495    2.5687    0.0000 C   0  0  0  0  0  0  0  0  0  0  0  0
    1.8291    2.2987    0.0000 C   0  0  0  0  0  0  0  0  0  0  0  0
    2.6086    2.0286    0.0000 C   0  0  0  0  0  0  0  0  0  0  0  0
    3.3882    1.7586    0.0000 C   0  0  0  0  0  0  0  0  0  0  0  0
    4.1677    1.4885    0.0000 C   0  0  0  0  0  0  0  0  0  0  0  0
    4.9473    1.2185    0.0000 C   0  0  0  0  0  0  0  0  0  0  0  0
    5.7269    0.9484    0.0000 C   0  0  0  0  0  0  0  0  0  0  0  0
    6.5064    0.6784    0.0000 C   0  0  0  0  0  0  0  0  0  0  0  0
    7.2860    0.4084    0.0000 C   0  0  0  0  0  0  0  0  0  0  0  0
  1  2  2  0  0  0  0 
  2  3  1  0  0  0  0 
  2  4  1  0  0  0  0 
  3  5  1  0  0  0  0 
  4  6  1  0  0  0  0 
  5  7  1  0  0  0  0 
  6  8  1  0  0  0  0 
  7  9  1  0  0  0  0 
  8 10  1  0  0  0  0 
  9 11  1  0  0  0  0 
 10 12  1  0  0  0  0 
 11 13  1  0  0  0  0 
 12 14  1  0  0  0  0 
 13 15  1  0  0  0  0 
 14 16  1  0  0  0  0 
 15 17  1  0  0  0  0 
 16 18  1  0  0  0  0 
 17 19  1  0  0  0  0 
 18 20  1  0  0  0  0 
 19 21  1  0  0  0  0 
 21 22  1  0  0  0  0 
 22 23  2  0  0  0  0 
 22 24  1  0  0  0  0 
 24 25  1  0  0  0  0 
 25 26  1  0  0  0  0 
 26 27  1  0  0  0  0 
 27 28  1  0  0  0  0 
 28 29  1  0  0  0  0 
 29 30  1  0  0  0  0 
 30 31  1  0  0  0  0 
 31 32  1  0  0  0  0 
M  END
> <Name>
Decanoic acid, diester with triethylene glycol (mixed isomers)

> <Source>
Smiles

> <Tox>
1.806

> <CAS>
10024-58-5

$$$$

  CDK

 15 14  0  0  0  0  0  0  0  0999 V2000
    0.0000    0.0000    0.0000 C   0  0  0  0  0  0  0  0  0  0  0  0
   -0.7400    1.2200   -0.5600 C   0  0  0  0  0  0  0  0  0  0  0  0
   -0.9000   -0.7600    0.8200 O   0  0  0  0  0  0  0  0  0  0  0  0
   -1.7200    0.8600   -1.6600 C   0  0  0  0  0  0  0  0  0  0  0  0
   -1.5000   -1.7200    0.1400 C   0  0  0  0  0  0  0  0  0  0  0  0
   -2.2000    2.0800   -2.4400 C   0  0  0  0  0  0  0  0  0  0  0  0
   -2.4000   -2.6200    0.9600 C   0  0  0  0  0  0  0  0  0  0  0  0
   -1.3800   -1.9000   -1.0400 O   0  0  0  0  0  0  0  0  0  0  0  0
   -3.2200    1.7200   -3.5400 C   0  0  0  0  0  0  0  0  0  0  0  0
   -1.9200   -4.0800    0.9600 C   0  0  0  0  0  0  0  0  0  0  0  0
   -4.5200    1.7000   -2.9800 O   0  0  0  0  0  0  0  0  0  0  0  0
   -5.4600    1.4800   -3.9000 C   0  0  0  0  0  0  0  0  0  0  0  0
   -5.2200    1.2400   -5.0600 O   0  0  0  0  0  0  0  0  0  0  0  0
   -6.8800    1.5200   -3.3800 C   0  0  0  0  0  0  0  0  0  0  0  0
   -7.7000    2.6000   -4.0800 C   0  0  0  0  0  0  0  0  0  0  0  0
  1  2  1  0  0  0  0 
  1  3  1  0  0  0  0 
  2  4  1  0  0  0  0 
  5  3  1  0  0  0  0 
  4  6  1  0  0  0  0 
  7  5  1  0  0  0  0 
  5  8  2  0  0  0  0 
  6  9  1  0  0  0  0 
 10  7  1  0  0  0  0 
  9 11  1  0  0  0  0 
 11 12  1  0  0  0  0 
 12 13  2  0  0  0  0 
 12 14  1  0  0  0  0 
 14 15  1  0  0  0  0 
M  END
> <Name>
1,5-Pentanediol, dipropanoate (9CI)

> <Source>
NIH3DMolFile

> <Tox>
1.435

> <CAS>
10025-09-9

$$$$

  CDK

 12 13  0  0  0  0  0  0  0  0999 V2000
    0.0000    4.7934    0.0000 C   0  0  0  0  0  0  0  0  0  0  0  0
    1.3031    5.1657    0.0000 C   0  0  0  0  0  0  0  0  0  0  0  0
    0.6981    6.0033    0.0000 C   0  0  0  0  0  0  0  0  0  0  0  0
    2.6526    4.7934    0.0000 C   0  0  0  0  0  0  0  0  0  0  0  0
    1.3496    7.5856    0.0000 C   0  0  0  0  0  0  0  0  0  0  0  0
    2.0477    6.3756    0.0000 C   0  0  0  0  0  0  0  0  0  0  0  0
    3.3972    6.0033    0.0000 C   0  0  0  0  0  0  0  0  0  0  0  0
    3.2111    3.4903    0.0000 O   0  0  0  0  0  0  0  0  0  0  0  0
    2.3734    2.3734    0.0000 C   0  0  0  0  0  0  0  0  0  0  0  0
    2.8853    1.1169    0.0000 C   0  0  0  0  0  0  0  0  0  0  0  0
    0.9773    2.5596    0.0000 O   0  0  0  0  0  0  0  0  0  0  0  0
    2.0477    0.0000    0.0000 C   0  0  0  0  0  0  0  0  0  0  0  0
  1  2  1  0  0  0  0 
  1  3  1  0  0  0  0 
  2  4  1  0  0  0  0 
  2  5  1  0  0  0  0 
  3  6  1  0  0  0  0 
  4  7  1  0  0  0  0 
  4  8  1  0  0  0  0 
  6  5  1  0  0  0  0 
  7  6  1  0  0  0  0 
  8  9  1  0  0  0  0 
  9 10  1  0  0  0  0 
  9 11  2  0  0  0  0 
 10 12  2  0  0  0  0 
M  END
> <Name>
Acrylic acid, 2-norbornyl ester

> <Source>
IndexNet2DMolFile

> <Tox>
1.482

> <CAS>
10027-06-2

$$$$

  CDK

 12 11  0  0  0  0  0  0  0  0999 V2000
    2.8993    2.0063   -0.1616 C   0  0  0  0  0  0  0  0  0  0  0  0
    3.8482    0.8209    0.0306 C   0  0  0  0  0  0  0  0  0  0  0  0
    1.7089    1.8898    0.5690 O   0  0  0  0  0  0  0  0  0  0  0  0
    3.2685   -0.4686   -0.5454 C   0  0  0  0  0  0  0  0  0  0  0  0
    2.0778   -0.7466    0.1832 O   0  0  0  0  0  0  0  0  0  0  0  0
    1.3348   -1.8399   -0.3355 C   0  0  0  0  0  0  0  0  0  0  0  0
    0.0079   -1.8878    0.4312 C   0  0  0  0  0  0  0  0  0  0  0  0
   -0.8891   -1.0089   -0.2280 O   0  0  0  0  0  0  0  0  0  0  0  0
   -2.1029   -0.8116    0.4822 C   0  0  0  0  0  0  0  0  0  0  0  0
   -2.9518    0.1470   -0.3477 C   0  0  0  0  0  0  0  0  0  0  0  0
   -4.2795    0.4142    0.3428 C   0  0  0  0  0  0  0  0  0  0  0  0
   -5.1367    1.3652   -0.4615 C   0  0  0  0  0  0  0  0  0  0  0  0
  1  2  1  0  0  0  0 
  1  3  1  0  0  0  0 
  2  4  1  0  0  0  0 
  4  5  1  0  0  0  0 
  5  6  1  0  0  0  0 
  6  7  1  0  0  0  0 
  7  8  1  0  0  0  0 
  8  9  1  0  0  0  0 
  9 10  1  0  0  0  0 
 10 11  1  0  0  0  0 
 11 12  1  0  0  0  0 
M  END
> <Name>
1-Propanol, 3-(2-butoxyethoxy)-

> <Source>
DougDB3DMolFile

> <Tox>
1.533

> <CAS>
10043-18-2

$$$$

  CDK

 11 11  0  0  0  0  0  0  0  0999 V2000
    1.9256   -0.2932   -0.2802 N   0  0  0  0  0  0  0  0  0  0  0  0
    0.8228   -1.0981    0.3341 C   0  0  0  0  0  0  0  0  0  0  0  0
    2.2788    0.9151    0.5061 C   0  0  0  0  0  0  0  0  0  0  0  0
   -0.4989   -0.3964    0.1415 C   0  0  0  0  0  0  0  0  0  0  0  0
    0.7685   -2.4862   -0.2976 C   0  0  0  0  0  0  0  0  0  0  0  0
    3.4402    1.6519   -0.1296 C   0  0  0  0  0  0  0  0  0  0  0  0
   -1.3229   -0.1661    1.2448 C   0  0  0  0  0  0  0  0  0  0  0  0
   -0.9207    0.0082   -1.1262 C   0  0  0  0  0  0  0  0  0  0  0  0
   -2.5534    0.4600    1.0811 C   0  0  0  0  0  0  0  0  0  0  0  0
   -2.1505    0.6374   -1.2850 C   0  0  0  0  0  0  0  0  0  0  0  0
   -2.9687    0.8631   -0.1834 C   0  0  0  0  0  0  0  0  0  0  0  0
  1  2  1  0  0  0  0 
  1  3  1  0  0  0  0 
  2  4  1  0  0  0  0 
  2  5  1  0  0  0  0 
  3  6  1  0  0  0  0 
  4  7  1  0  0  0  0 
  4  8  2  0  0  0  0 
  7  9  2  0  0  0  0 
 10  8  1  0  0  0  0 
  9 11  1  0  0  0  0 
 11 10  2  0  0  0  0 
M  END
> <Name>
Benzylamine, N-ethyl-alpha-methyl-

> <Source>
DougDB3DMolFile

> <Tox>
2.618

> <CAS>
10137-87-8

$$$$

  CDK

 16 15  0  0  0  0  0  0  0  0999 V2000
    0.2400    3.7101   -0.2594 C   0  0  0  0  0  0  0  0  0  0  0  0
   -0.7133    2.5473   -0.5746 C   0  0  0  0  0  0  0  0  0  0  0  0
    1.5921    3.3486   -0.3321 O   0  0  0  0  0  0  0  0  0  0  0  0
   -0.7380    1.7046    0.5666 O   0  0  0  0  0  0  0  0  0  0  0  0
   -1.0639    0.3437    0.2835 C   0  0  0  0  0  0  0  0  0  0  0  0
   -0.4382   -0.5041    1.4000 C   0  0  0  0  0  0  0  0  0  0  0  0
   -2.5891    0.1492    0.2357 C   0  0  0  0  0  0  0  0  0  0  0  0
    1.0635   -0.7070    1.2127 C   0  0  0  0  0  0  0  0  0  0  0  0
   -2.9427   -1.2573   -0.2496 C   0  0  0  0  0  0  0  0  0  0  0  0
    1.3590   -1.5193   -0.0510 C   0  0  0  0  0  0  0  0  0  0  0  0
    1.6601   -1.3917    2.4314 C   0  0  0  0  0  0  0  0  0  0  0  0
   -2.5381   -1.4409   -1.7033 C   0  0  0  0  0  0  0  0  0  0  0  0
   -4.4250   -1.5290   -0.0684 C   0  0  0  0  0  0  0  0  0  0  0  0
    2.8489   -1.4875   -0.3942 C   0  0  0  0  0  0  0  0  0  0  0  0
    3.2705   -0.0896   -0.8159 C   0  0  0  0  0  0  0  0  0  0  0  0
    3.1720   -2.4958   -1.4815 C   0  0  0  0  0  0  0  0  0  0  0  0
  1  2  1  0  0  0  0 
  1  3  1  0  0  0  0 
  2  4  1  0  0  0  0 
  4  5  1  0  0  0  0 
  5  6  1  0  0  0  0 
  5  7  1  0  0  0  0 
  6  8  1  0  0  0  0 
  7  9  1  0  0  0  0 
  8 10  1  0  0  0  0 
  8 11  1  0  0  0  0 
  9 12  1  0  0  0  0 
  9 13  1  0  0  0  0 
 10 14  1  0  0  0  0 
 14 15  1  0  0  0  0 
 14 16  1  0  0  0  0 
M  END
> <Name>
Ethanol, 2-((1-isobutyl-3,5-dimethylhexyl)oxy)-

> <Source>
DougDB3DMolFile

> <Tox>
1.736

> <CAS>
10137-98-1

$$$$

  CDK

 12 13  0  0  0  0  0  0  0  0999 V2000
    3.7191    2.5411    1.8481 C   0  0  0  0  0  0  0  0  0  0  0  0
    2.5130    2.3086    2.4475 O   0  0  0  0  0  0  0  0  0  0  0  0
    4.3721    1.5921    1.4626 O   0  0  0  0  0  0  0  0  0  0  0  0
    4.0168    4.0194    1.7186 C   0  0  0  0  0  0  0  0  0  0  0  0
    2.0969    0.9559    2.6419 C   0  0  0  0  0  0  0  0  0  0  0  0
    5.3962    4.3580    1.0779 C   0  0  0  0  0  0  0  0  0  0  0  0
    4.0787    4.7615    3.0840 C   0  0  0  0  0  0  0  0  0  0  0  0
    0.7627    1.0159    3.3607 C   0  0  0  0  0  0  0  0  0  0  0  0
    5.5266    5.8448    1.5196 C   0  0  0  0  0  0  0  0  0  0  0  0
    6.4716    3.7376    1.9553 C   0  0  0  0  0  0  0  0  0  0  0  0
    5.4380    5.5034    3.0326 C   0  0  0  0  0  0  0  0  0  0  0  0
    6.4989    4.4192    3.1156 C   0  0  0  0  0  0  0  0  0  0  0  0
  1  2  1  0  0  0  0 
  1  3  2  0  0  0  0 
  1  4  1  0  0  0  0 
  2  5  1  0  0  0  0 
  6  4  1  0  0  0  0 
  4  7  1  0  0  0  0 
  5  8  1  0  0  0  0 
  6  9  1  0  0  0  0 
 10  6  1  0  0  0  0 
  7 11  1  0  0  0  0 
 11  9  1  0  0  0  0 
 12 10  2  0  0  0  0 
 11 12  1  0  0  0  0 
M  END
> <Name>
Bicyclo(2.2.1)hept-5-ene-2-carboxylic acid, ethyl ester

> <Source>
NIST3DMolFile

> <Tox>
1.603

> <CAS>
10138-32-6

$$$$

  CDK

 10 10  0  0  0  0  0  0  0  0999 V2000
    0.0000    0.0000    0.0000 C   0  0  0  0  0  0  0  0  0  0  0  0
   -0.9400    0.9000    0.8000 C   0  0  0  0  0  0  0  0  0  0  0  0
   -1.5600    1.7800   -0.1200 O   0  0  0  0  0  0  0  0  0  0  0  0
   -2.4200    1.1600   -1.0200 C   0  0  0  0  0  0  0  0  0  0  0  0
   -3.0600    2.1800   -1.9600 C   0  0  0  0  0  0  0  0  0  0  0  0
   -3.4000    0.4000   -0.3200 O   0  0  0  0  0  0  0  0  0  0  0  0
   -4.0400    3.0800   -1.2200 C   0  0  0  0  0  0  0  0  0  0  0  0
   -4.5400    1.0000    0.0600 C   0  0  0  0  0  0  0  0  0  0  0  0
   -3.3600    4.2000   -0.4400 C   0  0  0  0  0  0  0  0  0  0  0  0
   -4.9000    2.2600   -0.3000 C   0  0  0  0  0  0  0  0  0  0  0  0
  1  2  1  0  0  0  0 
  2  3  1  0  0  0  0 
  3  4  1  0  0  0  0 
  4  5  1  0  0  0  0 
  4  6  1  0  0  0  0 
  5  7  1  0  0  0  0 
  8  6  1  0  0  0  0 
  7  9  1  0  0  0  0 
  7 10  1  0  0  0  0 
 10  8  2  0  0  0  0 
M  END
> <Name>
2H-Pyran, 2-ethoxy-3,4-dihydro-4-methyl-

> <Source>
NIH3DMolFile

> <Tox>
1.621

> <CAS>
10138-44-0

$$$$

  CDK

 11 10  0  0  0  0  0  0  0  0999 V2000
    2.6403    1.8476   -0.1689 C   0  0  0  0  0  0  0  0  0  0  0  0
    2.3193    0.4085    0.2619 C   0  0  0  0  0  0  0  0  0  0  0  0
    1.7026    2.7814    0.2924 O   0  0  0  0  0  0  0  0  0  0  0  0
    1.2258   -0.0346   -0.5260 O   0  0  0  0  0  0  0  0  0  0  0  0
    0.4209   -1.0334    0.1050 C   0  0  0  0  0  0  0  0  0  0  0  0
   -1.0051   -0.8629   -0.4368 C   0  0  0  0  0  0  0  0  0  0  0  0
    0.9663   -2.4336   -0.2260 C   0  0  0  0  0  0  0  0  0  0  0  0
   -1.7229    0.3183    0.1940 C   0  0  0  0  0  0  0  0  0  0  0  0
    0.1957   -3.5058    0.5102 C   0  0  0  0  0  0  0  0  0  0  0  0
   -3.1360    0.4586   -0.3492 C   0  0  0  0  0  0  0  0  0  0  0  0
   -3.8567    1.6291    0.2804 C   0  0  0  0  0  0  0  0  0  0  0  0
  1  2  1  0  0  0  0 
  1  3  1  0  0  0  0 
  2  4  1  0  0  0  0 
  4  5  1  0  0  0  0 
  5  6  1  0  0  0  0 
  5  7  1  0  0  0  0 
  6  8  1  0  0  0  0 
  7  9  1  0  0  0  0 
  8 10  1  0  0  0  0 
 10 11  1  0  0  0  0 
M  END
> <Name>
Ethanol, 2-((1-ethylpentyl)oxy)-

> <Source>
DougDB3DMolFile

> <Tox>
1.847

> <CAS>
10138-47-3

$$$$

  CDK

 16 16  0  0  0  0  0  0  0  0999 V2000
    0.7583   -0.9054   -0.1206 C   0  0  0  0  0  0  0  0  0  0  0  0
   -0.7600   -0.9143    0.1227 C   0  0  0  0  0  0  0  0  0  0  0  0
    1.3970   -2.1680    0.4673 C   0  0  0  0  0  0  0  0  0  0  0  0
    1.4219    0.3032    0.5303 C   0  0  0  0  0  0  0  0  0  0  0  0
   -1.3827   -2.1891   -0.4560 C   0  0  0  0  0  0  0  0  0  0  0  0
   -1.4372    0.2809   -0.5390 C   0  0  0  0  0  0  0  0  0  0  0  0
    0.7648   -3.4211   -0.1140 C   0  0  0  0  0  0  0  0  0  0  0  0
    1.1626    0.8134    1.6030 O   0  0  0  0  0  0  0  0  0  0  0  0
    2.4368    0.8082   -0.2236 O   0  0  0  0  0  0  0  0  0  0  0  0
   -0.7343   -3.4299    0.1337 C   0  0  0  0  0  0  0  0  0  0  0  0
   -1.1979    0.7692   -1.6265 O   0  0  0  0  0  0  0  0  0  0  0  0
   -2.4380    0.8008    0.2234 O   0  0  0  0  0  0  0  0  0  0  0  0
    3.1555    1.9421    0.2679 C   0  0  0  0  0  0  0  0  0  0  0  0
   -3.1639    1.9268   -0.2758 C   0  0  0  0  0  0  0  0  0  0  0  0
    4.1961    2.2784   -0.7826 C   0  0  0  0  0  0  0  0  0  0  0  0
   -4.1781    2.2903    0.7913 C   0  0  0  0  0  0  0  0  0  0  0  0
  1  2  1  0  0  0  0 
  1  3  1  0  0  0  0 
  1  4  1  0  0  0  0 
  2  5  1  0  0  0  0 
  2  6  1  0  0  0  0 
  7  3  1  0  0  0  0 
  4  8  2  0  0  0  0 
  4  9  1  0  0  0  0 
  5 10  1  0  0  0  0 
  6 11  2  0  0  0  0 
  6 12  1  0  0  0  0 
 10  7  1  0  0  0  0 
  9 13  1  0  0  0  0 
 12 14  1  0  0  0  0 
 13 15  1  0  0  0  0 
 14 16  1  0  0  0  0 
M  END
> <Name>
Cyclohexane-1,2-dicarboxylic acid, diethyl ester

> <Source>
DougDB3DMolFile

> <Tox>
1.746

> <CAS>
10138-59-7

$$$$

  CDK

 28 27  0  0  0  0  0  0  0  0999 V2000
    4.9489    0.1630    0.0000 C   0  0  0  0  0  0  0  0  0  0  0  0
    4.1340    0.0346    0.0000 C   0  0  0  0  0  0  0  0  0  0  0  0
    3.3190   -0.0937    0.0000 C   0  0  0  0  0  0  0  0  0  0  0  0
    2.5041   -0.2220    0.0000 C   0  0  0  0  0  0  0  0  0  0  0  0
    1.6891   -0.3503    0.0000 O   0  0  0  0  0  0  0  0  0  0  0  0
    1.1705    0.2913    0.0000 C   0  0  0  0  0  0  0  0  0  0  0  0
    1.4669    1.0612    0.0000 O   0  0  0  0  0  0  0  0  0  0  0  0
    0.3555    0.1630    0.0000 C   0  0  0  0  0  0  0  0  0  0  0  0
   -0.4594    0.0346    0.0000 C   0  0  0  0  0  0  0  0  0  0  0  0
   -0.3311   -0.7803    0.0000 C   0  0  0  0  0  0  0  0  0  0  0  0
   -1.2744   -0.0937    0.0000 P   0  0  0  0  0  0  0  0  0  0  0  0
    0.4388   -1.0767    0.0000 O   0  0  0  0  0  0  0  0  0  0  0  0
   -0.9727   -1.2989    0.0000 O   0  0  0  0  0  0  0  0  0  0  0  0
   -1.1461   -0.9087    0.0000 O   0  0  0  0  0  0  0  0  0  0  0  0
   -1.4027    0.7213    0.0000 O   0  0  0  0  0  0  0  0  0  0  0  0
   -2.0893   -0.2220    0.0000 O   0  0  0  0  0  0  0  0  0  0  0  0
   -0.8444   -2.1139    0.0000 C   0  0  0  0  0  0  0  0  0  0  0  0
   -0.7611    1.2399    0.0000 C   0  0  0  0  0  0  0  0  0  0  0  0
   -2.6079    0.4196    0.0000 C   0  0  0  0  0  0  0  0  0  0  0  0
   -0.7161   -2.9289    0.0000 C   0  0  0  0  0  0  0  0  0  0  0  0
   -0.1195    1.7585    0.0000 C   0  0  0  0  0  0  0  0  0  0  0  0
   -3.1266    1.0612    0.0000 C   0  0  0  0  0  0  0  0  0  0  0  0
   -0.5877   -3.7438    0.0000 C   0  0  0  0  0  0  0  0  0  0  0  0
    0.5221    2.2771    0.0000 C   0  0  0  0  0  0  0  0  0  0  0  0
   -3.6452    1.7028    0.0000 C   0  0  0  0  0  0  0  0  0  0  0  0
   -0.4594   -4.5588    0.0000 C   0  0  0  0  0  0  0  0  0  0  0  0
    1.1638    2.7957    0.0000 C   0  0  0  0  0  0  0  0  0  0  0  0
   -4.1638    2.3444    0.0000 C   0  0  0  0  0  0  0  0  0  0  0  0
  1  2  1  0  0  0  0 
  2  3  1  0  0  0  0 
  3  4  1  0  0  0  0 
  4  5  1  0  0  0  0 
  5  6  1  0  0  0  0 
  6  7  2  0  0  0  0 
  6  8  1  0  0  0  0 
  8  9  1  0  0  0  0 
  9 10  1  0  0  0  0 
  9 11  1  0  0  0  0 
 10 12  2  0  0  0  0 
 10 13  1  0  0  0  0 
 11 14  2  0  0  0  0 
 11 15  1  0  0  0  0 
 11 16  1  0  0  0  0 
 13 17  1  0  0  0  0 
 15 18  1  0  0  0  0 
 16 19  1  0  0  0  0 
 17 20  1  0  0  0  0 
 18 21  1  0  0  0  0 
 19 22  1  0  0  0  0 
 20 23  1  0  0  0  0 
 21 24  1  0  0  0  0 
 22 25  1  0  0  0  0 
 23 26  1  0  0  0  0 
 24 27  1  0  0  0  0 
 25 28  1  0  0  0  0 
M  END
> <Name>
Succinic acid, phosphono-, tetrabutyl ester

> <Source>
Smiles

> <Tox>
1.228

> <CAS>
10140-81-5

$$$$

  CDK

 13 13  0  0  0  0  0  0  0  0999 V2000
    0.7448   -1.7789    0.0000 O   0  0  0  0  0  0  0  0  0  0  0  0
    1.4593   -1.3664    0.0000 P   0  0  0  0  0  0  0  0  0  0  0  0
    0.0303   -1.3664    0.0000 C   0  0  0  0  0  0  0  0  0  0  0  0
    2.2637   -1.5493    0.0000 O   0  0  0  0  0  0  0  0  0  0  0  0
    2.0199   -1.9716    0.0000 Cl  0  0  0  0  0  0  0  0  0  0  0  0
    1.4593   -0.5414    0.0000 O   0  0  0  0  0  0  0  0  0  0  0  0
    0.0303   -0.5414    0.0000 C   0  0  0  0  0  0  0  0  0  0  0  0
    0.7448   -0.1289    0.0000 C   0  0  0  0  0  0  0  0  0  0  0  0
   -0.7742   -0.3585    0.0000 C   0  0  0  0  0  0  0  0  0  0  0  0
    0.5010    0.6592    0.0000 C   0  0  0  0  0  0  0  0  0  0  0  0
   -1.5786   -0.1755    0.0000 C   0  0  0  0  0  0  0  0  0  0  0  0
    0.2572    1.4474    0.0000 C   0  0  0  0  0  0  0  0  0  0  0  0
    0.0134    2.2356    0.0000 C   0  0  0  0  0  0  0  0  0  0  0  0
  1  2  1  0  0  0  0 
  1  3  1  0  0  0  0 
  2  4  2  0  0  0  0 
  2  5  1  0  0  0  0 
  2  6  1  0  0  0  0 
  7  3  1  0  0  0  0 
  6  8  1  0  0  0  0 
  8  7  1  0  0  0  0 
  7  9  1  0  0  0  0 
  8 10  1  0  0  0  0 
  9 11  1  0  0  0  0 
 10 12  1  0  0  0  0 
 12 13  1  0  0  0  0 
M  END
> <Name>
Phosphorochloridic acid, cyclic 2-ethyl-1-propyltrimethylene ester

> <Source>
Smiles

> <Tox>
3.957

> <CAS>
10140-93-9

$$$$

  CDK

  8  7  0  0  0  0  0  0  0  0999 V2000
    2.3044   -0.6637    0.0000 C   0  0  0  0  0  0  0  0  0  0  0  0
    3.4566   -0.0000    0.0000 C   0  0  0  0  0  0  0  0  0  0  0  0
    1.1522   -0.0000    0.0000 C   0  0  0  0  0  0  0  0  0  0  0  0
    2.3044   -1.9956    0.0000 C   0  0  0  0  0  0  0  0  0  0  0  0
    0.0000   -0.6637    0.0000 C   0  0  0  0  0  0  0  0  0  0  0  0
    1.1522   -2.6593    0.0000 C   0  0  0  0  0  0  0  0  0  0  0  0
    3.4566   -2.6593    0.0000 C   0  0  0  0  0  0  0  0  0  0  0  0
    4.6088   -1.9956    0.0000 O   0  0  0  0  0  0  0  0  0  0  0  0
  1  2  1  0  0  0  0 
  1  3  1  0  0  0  0 
  1  4  1  0  0  0  0 
  3  5  1  0  0  0  0 
  4  6  1  0  0  0  0 
  4  7  1  0  0  0  0 
  7  8  1  0  0  0  0 
M  END
> <Name>
1-Pentanol, 2,3-dimethyl-, (3S)-(-)- (8CI)

> <Source>
DSSTox2DMolFile

> <Tox>
1.741

> <CAS>
10143-23-4

$$$$

  CDK

 16 15  0  0  0  0  0  0  0  0999 V2000
    0.0000    0.0000    0.0000 C   0  0  0  0  0  0  0  0  0  0  0  0
   -0.4400   -0.5200    1.3600 C   0  0  0  0  0  0  0  0  0  0  0  0
    0.6800   -1.2000    2.1200 C   0  0  0  0  0  0  0  0  0  0  0  0
    0.2600   -1.5800    3.4800 N   0  0  0  0  0  0  0  0  0  0  0  0
    0.8200   -0.9800    4.5600 C   0  0  0  0  0  0  0  0  0  0  0  0
   -0.7800   -2.6200    3.6200 C   0  0  0  0  0  0  0  0  0  0  0  0
    1.6400   -0.1000    4.4200 O   0  0  0  0  0  0  0  0  0  0  0  0
    0.4000   -1.4200    5.9400 C   0  0  0  0  0  0  0  0  0  0  0  0
   -2.1600   -1.9800    3.8200 C   0  0  0  0  0  0  0  0  0  0  0  0
    1.3400   -2.4400    6.5400 C   0  0  0  0  0  0  0  0  0  0  0  0
   -3.2800   -3.0200    3.8600 C   0  0  0  0  0  0  0  0  0  0  0  0
    1.0600   -2.7000    8.0000 C   0  0  0  0  0  0  0  0  0  0  0  0
    0.8000   -3.9600    8.3000 O   0  0  0  0  0  0  0  0  0  0  0  0
    1.0600   -1.8000    8.8000 O   0  0  0  0  0  0  0  0  0  0  0  0
    0.5800   -4.1600    9.7000 C   0  0  0  0  0  0  0  0  0  0  0  0
    0.3200   -5.6400    9.9800 C   0  0  0  0  0  0  0  0  0  0  0  0
  1  2  1  0  0  0  0 
  2  3  1  0  0  0  0 
  3  4  1  0  0  0  0 
  4  5  1  0  0  0  0 
  4  6  1  0  0  0  0 
  5  7  2  0  0  0  0 
  5  8  1  0  0  0  0 
  9  6  1  0  0  0  0 
  8 10  1  0  0  0  0 
 11  9  1  0  0  0  0 
 10 12  1  0  0  0  0 
 12 13  1  0  0  0  0 
 12 14  2  0  0  0  0 
 13 15  1  0  0  0  0 
 15 16  1  0  0  0  0 
M  END
> <Name>
Succinamic acid, N,N-dipropyl-, ethyl ester

> <Source>
NIH3DMolFile

> <Tox>
1.652

> <CAS>
10143-31-4

$$$$

  CDK

 33 32  0  0  0  0  0  0  0  0999 V2000
    3.6753   -3.3327    0.0000 C   0  0  0  0  0  0  0  0  0  0  0  0
    2.8666   -3.1094    0.0000 C   0  0  0  0  0  0  0  0  0  0  0  0
    2.2313   -2.6024    0.0000 C   0  0  0  0  0  0  0  0  0  0  0  0
    1.5078   -3.0552    0.0000 C   0  0  0  0  0  0  0  0  0  0  0  0
    0.7286   -2.6935    0.0000 C   0  0  0  0  0  0  0  0  0  0  0  0
   -0.1049   -2.7633    0.0000 C   0  0  0  0  0  0  0  0  0  0  0  0
    0.1434   -2.0564    0.0000 C   0  0  0  0  0  0  0  0  0  0  0  0
   -0.4640   -3.5052    0.0000 C   0  0  0  0  0  0  0  0  0  0  0  0
   -0.6255   -1.6225    0.0000 O   0  0  0  0  0  0  0  0  0  0  0  0
   -0.9824   -0.8170    0.0000 Si  0  0  0  0  0  0  0  0  0  0  0  0
   -0.9516    0.0393    0.0000 O   0  0  0  0  0  0  0  0  0  0  0  0
   -1.7351   -0.3997    0.0000 O   0  0  0  0  0  0  0  0  0  0  0  0
   -0.1974   -0.4390    0.0000 O   0  0  0  0  0  0  0  0  0  0  0  0
   -0.6657    0.8539    0.0000 C   0  0  0  0  0  0  0  0  0  0  0  0
   -2.4513    0.0931    0.0000 C   0  0  0  0  0  0  0  0  0  0  0  0
    0.6646   -0.3524    0.0000 C   0  0  0  0  0  0  0  0  0  0  0  0
   -0.2945    1.6511    0.0000 C   0  0  0  0  0  0  0  0  0  0  0  0
   -3.1140    0.6424    0.0000 C   0  0  0  0  0  0  0  0  0  0  0  0
    1.3898    0.0870    0.0000 C   0  0  0  0  0  0  0  0  0  0  0  0
    0.3528    2.2152    0.0000 C   0  0  0  0  0  0  0  0  0  0  0  0
   -0.9237    2.2052    0.0000 C   0  0  0  0  0  0  0  0  0  0  0  0
   -3.5949   -0.0513    0.0000 C   0  0  0  0  0  0  0  0  0  0  0  0
   -3.5120    1.3972    0.0000 C   0  0  0  0  0  0  0  0  0  0  0  0
    2.2089    0.2265    0.0000 C   0  0  0  0  0  0  0  0  0  0  0  0
    0.5769    0.1348    0.0000 C   0  0  0  0  0  0  0  0  0  0  0  0
    1.0201    2.7453    0.0000 C   0  0  0  0  0  0  0  0  0  0  0  0
   -1.2399    2.9829    0.0000 C   0  0  0  0  0  0  0  0  0  0  0  0
   -4.3903   -0.3408    0.0000 C   0  0  0  0  0  0  0  0  0  0  0  0
   -4.0002    2.0783    0.0000 C   0  0  0  0  0  0  0  0  0  0  0  0
    2.2296    1.0399    0.0000 C   0  0  0  0  0  0  0  0  0  0  0  0
    0.4514   -0.7255    0.0000 C   0  0  0  0  0  0  0  0  0  0  0  0
    1.7565    3.1690    0.0000 C   0  0  0  0  0  0  0  0  0  0  0  0
    2.5166    3.5303    0.0000 C   0  0  0  0  0  0  0  0  0  0  0  0
  1  2  1  0  0  0  0 
  2  3  1  0  0  0  0 
  3  4  1  0  0  0  0 
  4  5  1  0  0  0  0 
  5  6  1  0  0  0  0 
  5  7  1  0  0  0  0 
  6  8  1  0  0  0  0 
  7  9  1  0  0  0  0 
  9 10  1  0  0  0  0 
 10 11  1  0  0  0  0 
 10 12  1  0  0  0  0 
 10 13  1  0  0  0  0 
 11 14  1  0  0  0  0 
 12 15  1  0  0  0  0 
 13 16  1  0  0  0  0 
 14 17  1  0  0  0  0 
 15 18  1  0  0  0  0 
 16 19  1  0  0  0  0 
 17 20  1  0  0  0  0 
 17 21  1  0  0  0  0 
 18 22  1  0  0  0  0 
 18 23  1  0  0  0  0 
 19 24  1  0  0  0  0 
 19 25  1  0  0  0  0 
 20 26  1  0  0  0  0 
 21 27  1  0  0  0  0 
 22 28  1  0  0  0  0 
 23 29  1  0  0  0  0 
 24 30  1  0  0  0  0 
 25 31  1  0  0  0  0 
 26 32  1  0  0  0  0 
 32 33  1  0  0  0  0 
M  END
> <Name>
Silane, di-(2-ethylbutoxy)-di-(2-ethylhexoxy)-

> <Source>
Smiles

> <Tox>
0.993

> <CAS>
10143-57-4

$$$$

  CDK

  9  8  0  0  0  0  0  0  0  0999 V2000
    2.9950    0.7614   -0.3527 C   0  0  0  0  0  0  0  0  0  0  0  0
    2.8317   -0.5921    0.3424 C   0  0  0  0  0  0  0  0  0  0  0  0
    2.0136    1.6966    0.0058 O   0  0  0  0  0  0  0  0  0  0  0  0
    1.5574   -1.3070   -0.1009 C   0  0  0  0  0  0  0  0  0  0  0  0
    0.4651   -0.4850    0.2955 O   0  0  0  0  0  0  0  0  0  0  0  0
   -0.7845   -0.9036   -0.2355 C   0  0  0  0  0  0  0  0  0  0  0  0
   -1.8226    0.1111    0.2349 C   0  0  0  0  0  0  0  0  0  0  0  0
   -3.1949   -0.2359   -0.3190 C   0  0  0  0  0  0  0  0  0  0  0  0
   -4.2401    0.7550    0.1410 C   0  0  0  0  0  0  0  0  0  0  0  0
  1  2  1  0  0  0  0 
  1  3  1  0  0  0  0 
  2  4  1  0  0  0  0 
  4  5  1  0  0  0  0 
  5  6  1  0  0  0  0 
  6  7  1  0  0  0  0 
  7  8  1  0  0  0  0 
  8  9  1  0  0  0  0 
M  END
> <Name>
1-Propanol, 3-butoxy-

> <Source>
DougDB3DMolFile

> <Tox>
1.392

> <CAS>
10215-33-5

$$$$

  CDK

 23 24  0  0  0  0  0  0  0  0999 V2000
    4.2968    3.3475    0.0000 C   0  0  0  0  0  0  0  0  0  0  0  0
    4.7965    2.4982    0.0000 S   0  0  0  0  0  0  0  0  0  0  0  0
    4.7965    4.1969    0.0000 C   0  0  0  0  0  0  0  0  0  0  0  0
    3.2976    3.3475    0.0000 N   0  0  0  0  0  0  0  0  0  0  0  0
    5.7957    2.4982    0.0000 P   0  0  0  0  0  0  0  0  0  0  0  0
    5.7957    4.1969    0.0000 Cl  0  0  0  0  0  0  0  0  0  0  0  0
    2.6980    4.1969    0.0000 C   0  0  0  0  0  0  0  0  0  0  0  0
    2.6980    2.5481    0.0000 C   0  0  0  0  0  0  0  0  0  0  0  0
    6.7950    2.4982    0.0000 O   0  0  0  0  0  0  0  0  0  0  0  0
    5.7957    1.4989    0.0000 O   0  0  0  0  0  0  0  0  0  0  0  0
    5.7957    3.4974    0.0000 S   0  0  0  0  0  0  0  0  0  0  0  0
    2.9978    5.1462    0.0000 O   0  0  0  0  0  0  0  0  0  0  0  0
    1.7487    3.8472    0.0000 C   0  0  0  0  0  0  0  0  0  0  0  0
    2.9978    1.5988    0.0000 O   0  0  0  0  0  0  0  0  0  0  0  0
    1.7487    2.8479    0.0000 C   0  0  0  0  0  0  0  0  0  0  0  0
    7.2946    3.3475    0.0000 C   0  0  0  0  0  0  0  0  0  0  0  0
    6.6451    0.9993    0.0000 C   0  0  0  0  0  0  0  0  0  0  0  0
    0.8993    4.3468    0.0000 C   0  0  0  0  0  0  0  0  0  0  0  0
    0.8993    2.3483    0.0000 C   0  0  0  0  0  0  0  0  0  0  0  0
    8.2939    3.3475    0.0000 C   0  0  0  0  0  0  0  0  0  0  0  0
    6.6451    0.0000    0.0000 C   0  0  0  0  0  0  0  0  0  0  0  0
    0.0000    3.8472    0.0000 C   0  0  0  0  0  0  0  0  0  0  0  0
    0.0000    2.8479    0.0000 C   0  0  0  0  0  0  0  0  0  0  0  0
  1  2  1  0  0  0  0 
  1  3  1  0  0  0  0 
  1  4  1  0  0  0  0 
  2  5  1  0  0  0  0 
  3  6  1  0  0  0  0 
  7  4  1  0  0  0  0 
  4  8  1  0  0  0  0 
  5  9  1  0  0  0  0 
  5 10  1  0  0  0  0 
  5 11  2  0  0  0  0 
  7 12  2  0  0  0  0 
 13  7  1  0  0  0  0 
  8 14  2  0  0  0  0 
  8 15  1  0  0  0  0 
  9 16  1  0  0  0  0 
 10 17  1  0  0  0  0 
 15 13  2  0  0  0  0 
 18 13  1  0  0  0  0 
 15 19  1  0  0  0  0 
 16 20  1  0  0  0  0 
 17 21  1  0  0  0  0 
 22 18  2  0  0  0  0 
 19 23  2  0  0  0  0 
 23 22  1  0  0  0  0 
M  END
> <Name>
Phosphorodithioic acid, S-(2-chloro-1-(1,3-dihydro-1,3-dioxo-2H-isoindol-2-yl)ethyl) O,O-diethyl ester

> <Source>
NIST2DMolFile

> <Tox>
4.896

> <CAS>
10311-84-9

$$$$

  CDK

 11 10  0  0  0  0  0  0  0  0999 V2000
    3.5317    2.5226    0.0000 C   0  0  0  0  0  0  0  0  0  0  0  0
    2.4722    2.5226    0.0000 P   0  0  0  0  0  0  0  0  0  0  0  0
    4.0362    3.3803    0.0000 C   0  0  0  0  0  0  0  0  0  0  0  0
    1.4631    2.5226    0.0000 O   0  0  0  0  0  0  0  0  0  0  0  0
    2.4722    1.5136    0.0000 O   0  0  0  0  0  0  0  0  0  0  0  0
    2.4722    3.5317    0.0000 O   0  0  0  0  0  0  0  0  0  0  0  0
    4.9948    3.3803    0.0000 Cl  0  0  0  0  0  0  0  0  0  0  0  0
    1.0090    3.3803    0.0000 C   0  0  0  0  0  0  0  0  0  0  0  0
    1.6145    0.9586    0.0000 C   0  0  0  0  0  0  0  0  0  0  0  0
    0.0000    3.3803    0.0000 C   0  0  0  0  0  0  0  0  0  0  0  0
    1.6145    0.0000    0.0000 C   0  0  0  0  0  0  0  0  0  0  0  0
  1  2  1  0  0  0  0 
  1  3  1  0  0  0  0 
  2  4  1  0  0  0  0 
  2  5  1  0  0  0  0 
  2  6  2  0  0  0  0 
  3  7  1  0  0  0  0 
  4  8  1  0  0  0  0 
  5  9  1  0  0  0  0 
  8 10  1  0  0  0  0 
  9 11  1  0  0  0  0 
M  END
> <Name>
Phosphonic acid, (2-chloroethyl)-, diethyl ester

> <Source>
NIST2DMolFile

> <Tox>
2.302

> <CAS>
10419-79-1

$$$$

  CDK

 17 17  0  0  0  0  0  0  0  0999 V2000
    3.3110   -0.2553    0.8127 C   0  0  0  0  0  0  0  0  0  0  0  0
    1.8741   -0.6730    0.5904 C   0  0  0  0  0  0  0  0  0  0  0  0
    4.1387   -0.7937    1.5218 O   0  0  0  0  0  0  0  0  0  0  0  0
    3.6526    0.8634    0.1139 O   0  0  0  0  0  0  0  0  0  0  0  0
    1.8102   -1.9813   -0.1811 C   0  0  0  0  0  0  0  0  0  0  0  0
    4.9843    1.3678    0.2375 C   0  0  0  0  0  0  0  0  0  0  0  0
    0.3943   -2.5512   -0.2491 C   0  0  0  0  0  0  0  0  0  0  0  0
    5.0621    2.5984   -0.6451 C   0  0  0  0  0  0  0  0  0  0  0  0
   -0.4074   -1.8336   -1.1811 O   0  0  0  0  0  0  0  0  0  0  0  0
   -1.4068   -1.0435   -0.6301 C   0  0  0  0  0  0  0  0  0  0  0  0
   -1.4533    0.3147   -0.9962 C   0  0  0  0  0  0  0  0  0  0  0  0
   -2.4111   -1.6088    0.1666 C   0  0  0  0  0  0  0  0  0  0  0  0
   -2.5228    1.0903   -0.5480 C   0  0  0  0  0  0  0  0  0  0  0  0
   -0.3961    0.9301   -1.8383 C   0  0  0  0  0  0  0  0  0  0  0  0
   -3.4644   -0.8208    0.6098 C   0  0  0  0  0  0  0  0  0  0  0  0
   -3.5125    0.5230    0.2488 C   0  0  0  0  0  0  0  0  0  0  0  0
   -4.7932    1.4804    0.7845 Cl  0  0  0  0  0  0  0  0  0  0  0  0
  1  2  1  0  0  0  0 
  1  3  2  0  0  0  0 
  1  4  1  0  0  0  0 
  2  5  1  0  0  0  0 
  4  6  1  0  0  0  0 
  5  7  1  0  0  0  0 
  6  8  1  0  0  0  0 
  7  9  1  0  0  0  0 
  9 10  1  0  0  0  0 
 10 11  1  0  0  0  0 
 10 12  2  0  0  0  0 
 11 13  2  0  0  0  0 
 11 14  1  0  0  0  0 
 15 12  1  0  0  0  0 
 13 16  1  0  0  0  0 
 16 15  2  0  0  0  0 
 16 17  1  0  0  0  0 
M  END
> <Name>
Butanoic acid, 4-(4-chloro-2-methylphenoxy)-, ethyl ester

> <Source>
DougDB3DMolFile

> <Tox>
2.257

> <CAS>
10443-70-6

$$$$

  CDK

 25 27  0  0  0  0  0  0  0  0999 V2000
   15.7133   -1.3356    0.0000 C   0  0  0  0  0  0  0  0  0  0  0  0
   14.5662   -1.9956    0.0000 C   0  0  0  0  0  0  0  0  0  0  0  0
   14.5662   -3.3312    0.0000 C   0  0  0  0  0  0  0  0  0  0  0  0
   13.4034   -1.3356    0.0000 C   0  0  0  0  0  0  0  0  0  0  0  0
   12.2564   -1.9956    0.0000 C   0  0  0  0  0  0  0  0  0  0  0  0
   11.5964   -3.1427    0.0000 C   0  0  0  0  0  0  0  0  0  0  0  0
   10.9207   -1.9956    0.0000 C   0  0  0  0  0  0  0  0  0  0  0  0
   12.6178   -4.0069    0.0000 C   0  0  0  0  0  0  0  0  0  0  0  0
   10.5750   -4.0069    0.0000 C   0  0  0  0  0  0  0  0  0  0  0  0
    9.7737   -1.3356    0.0000 C   0  0  0  0  0  0  0  0  0  0  0  0
    9.7737   -0.0000    0.0000 O   0  0  0  0  0  0  0  0  0  0  0  0
    8.6266   -1.9956    0.0000 O   0  0  0  0  0  0  0  0  0  0  0  0
    7.4638   -1.3356    0.0000 C   0  0  0  0  0  0  0  0  0  0  0  0
    6.3167   -1.9956    0.0000 C   0  0  0  0  0  0  0  0  0  0  0  0
    6.1753   -3.3155    0.0000 C   0  0  0  0  0  0  0  0  0  0  0  0
    5.1068   -1.4613    0.0000 C   0  0  0  0  0  0  0  0  0  0  0  0
    4.8711   -3.5983    0.0000 O   0  0  0  0  0  0  0  0  0  0  0  0
    4.2112   -2.4356    0.0000 C   0  0  0  0  0  0  0  0  0  0  0  0
    2.8912   -2.3099    0.0000 C   0  0  0  0  0  0  0  0  0  0  0  0
    2.1056   -3.3784    0.0000 C   0  0  0  0  0  0  0  0  0  0  0  0
    2.6398   -4.5883    0.0000 C   0  0  0  0  0  0  0  0  0  0  0  0
    0.7857   -3.2369    0.0000 C   0  0  0  0  0  0  0  0  0  0  0  0
    1.8699   -5.6725    0.0000 C   0  0  0  0  0  0  0  0  0  0  0  0
    0.0000   -4.3212    0.0000 C   0  0  0  0  0  0  0  0  0  0  0  0
    0.5343   -5.5311    0.0000 C   0  0  0  0  0  0  0  0  0  0  0  0
  1  2  1  0  0  0  0 
  2  3  1  0  0  0  0 
  2  4  2  0  0  0  0 
  4  5  1  0  0  0  0 
  5  6  1  0  0  0  0 
  5  7  1  0  0  0  0 
  6  8  1  0  0  0  0 
  6  9  1  0  0  0  0 
  6  7  1  0  0  0  0 
  7 10  1  0  0  0  0 
 10 11  2  0  0  0  0 
 10 12  1  0  0  0  0 
 12 13  1  0  0  0  0 
 13 14  1  0  0  0  0 
 14 15  2  0  0  0  0 
 14 16  1  0  0  0  0 
 15 17  1  0  0  0  0 
 18 16  2  0  0  0  0 
 17 18  1  0  0  0  0 
 18 19  1  0  0  0  0 
 19 20  1  0  0  0  0 
 20 21  2  0  0  0  0 
 20 22  1  0  0  0  0 
 21 23  1  0  0  0  0 
 24 22  2  0  0  0  0 
 23 25  2  0  0  0  0 
 25 24  1  0  0  0  0 
M  END
> <Name>
Cyclopropanecarboxylic acid, 2,2-dimethyl-3-(2-methyl-1-propenyl)-, (5-(phenylmethyl)-3-furanyl)methyl ester, cis,trans-(+/-)-

> <Source>
DSSTox2DMolFile

> <Tox>
2.435

> <CAS>
10453-86-8

$$$$

  CDK

 21 21  0  0  0  0  0  0  0  0999 V2000
    0.0000    0.0000    0.0000 C   0  0  0  0  0  0  0  0  0  0  0  0
    0.6400   -0.8400   -1.1000 C   0  0  0  0  0  0  0  0  0  0  0  0
    0.5000   -2.3400   -0.8600 C   0  0  0  0  0  0  0  0  0  0  0  0
    0.2000   -0.4200   -2.5000 C   0  0  0  0  0  0  0  0  0  0  0  0
    2.0200   -0.3600   -0.8000 C   0  0  0  0  0  0  0  0  0  0  0  0
    2.3600    1.0000   -0.9800 C   0  0  0  0  0  0  0  0  0  0  0  0
    2.9800   -1.2600   -0.3000 C   0  0  0  0  0  0  0  0  0  0  0  0
    1.4800    1.8400   -1.4400 O   0  0  0  0  0  0  0  0  0  0  0  0
    3.6800    1.4200   -0.7000 C   0  0  0  0  0  0  0  0  0  0  0  0
    4.2800   -0.8400   -0.0200 C   0  0  0  0  0  0  0  0  0  0  0  0
    4.0600    2.8400   -0.9000 C   0  0  0  0  0  0  0  0  0  0  0  0
    4.6200    0.5200   -0.2000 C   0  0  0  0  0  0  0  0  0  0  0  0
    5.3000   -1.8000    0.5000 C   0  0  0  0  0  0  0  0  0  0  0  0
    3.5000    3.4000   -2.2200 C   0  0  0  0  0  0  0  0  0  0  0  0
    5.5600    3.0600   -0.7400 C   0  0  0  0  0  0  0  0  0  0  0  0
    3.2600    3.3400    0.3200 C   0  0  0  0  0  0  0  0  0  0  0  0
    5.3000   -3.0600    0.0200 C   0  0  0  0  0  0  0  0  0  0  0  0
    5.8800   -4.1000    0.8000 C   0  0  0  0  0  0  0  0  0  0  0  0
    4.7200   -3.3400   -1.2800 C   0  0  0  0  0  0  0  0  0  0  0  0
    6.3400   -4.9600    1.4400 N   0  0  0  0  0  0  0  0  0  0  0  0
    4.2800   -3.5600   -2.3000 N   0  0  0  0  0  0  0  0  0  0  0  0
  1  2  1  0  0  0  0 
  2  3  1  0  0  0  0 
  2  4  1  0  0  0  0 
  2  5  1  0  0  0  0 
  5  6  2  0  0  0  0 
  5  7  1  0  0  0  0 
  6  8  1  0  0  0  0 
  6  9  1  0  0  0  0 
 10  7  2  0  0  0  0 
 11  9  1  0  0  0  0 
  9 12  2  0  0  0  0 
 12 10  1  0  0  0  0 
 10 13  1  0  0  0  0 
 14 11  1  0  0  0  0 
 11 15  1  0  0  0  0 
 11 16  1  0  0  0  0 
 17 13  2  0  0  0  0 
 18 17  1  0  0  0  0 
 17 19  1  0  0  0  0 
 20 18  3  0  0  0  0 
 19 21  3  0  0  0  0 
M  END
> <Name>
Propanedinitrile, ((3,5-bis(1,1-dimethylethyl)-4-hydroxyphenyl)methylene)-

> <Source>
NIH3DMolFile

> <Tox>
3.511

> <CAS>
10537-47-0

$$$$

  CDK

 11 12  0  0  0  0  0  0  0  0999 V2000
   -0.0019    1.0901    0.2412 O   0  0  0  0  0  0  0  0  0  0  0  0
   -1.1878    1.7372   -0.1950 C   0  0  0  0  0  0  0  0  0  0  0  0
    1.1823    1.7384   -0.1975 C   0  0  0  0  0  0  0  0  0  0  0  0
   -2.3732    0.9432    0.3464 C   0  0  0  0  0  0  0  0  0  0  0  0
    2.3701    0.9462    0.3411 C   0  0  0  0  0  0  0  0  0  0  0  0
   -2.6114   -0.3168   -0.4510 C   0  0  0  0  0  0  0  0  0  0  0  0
    2.6031   -0.3184   -0.4503 C   0  0  0  0  0  0  0  0  0  0  0  0
   -2.2039   -1.6502    0.0697 C   0  0  0  0  0  0  0  0  0  0  0  0
   -3.5754   -1.2422    0.0825 O   0  0  0  0  0  0  0  0  0  0  0  0
    2.2143   -1.6504    0.0878 C   0  0  0  0  0  0  0  0  0  0  0  0
    3.5827   -1.2327    0.0738 O   0  0  0  0  0  0  0  0  0  0  0  0
  1  2  1  0  0  0  0 
  1  3  1  0  0  0  0 
  2  4  1  0  0  0  0 
  3  5  1  0  0  0  0 
  4  6  1  0  0  0  0 
  5  7  1  0  0  0  0 
  6  8  1  0  0  0  0 
  6  9  1  0  0  0  0 
  7 10  1  0  0  0  0 
  7 11  1  0  0  0  0 
  8  9  1  0  0  0  0 
 10 11  1  0  0  0  0 
M  END
> <Name>
Ether, bis(3,4-epoxybutyl)

> <Source>
DougDB3DMolFile

> <Tox>
2.138

> <CAS>
10580-77-5

$$$$

  CDK

 35 36  0  0  0  0  0  0  0  0999 V2000
    0.0000   18.6563    0.0000 C   0  0  0  0  0  0  0  0  0  0  0  0
    0.6996   19.8690    0.0000 C   0  0  0  0  0  0  0  0  0  0  0  0
    0.0000   21.0816    0.0000 O   0  0  0  0  0  0  0  0  0  0  0  0
    2.0988   19.8690    0.0000 C   0  0  0  0  0  0  0  0  0  0  0  0
    2.7984   18.6563    0.0000 C   0  0  0  0  0  0  0  0  0  0  0  0
    2.7984   21.0816    0.0000 C   0  0  0  0  0  0  0  0  0  0  0  0
    2.7984   22.4808    0.0000 O   0  0  0  0  0  0  0  0  0  0  0  0
    4.0111   21.7812    0.0000 C   0  0  0  0  0  0  0  0  0  0  0  0
    5.4103   21.7812    0.0000 C   0  0  0  0  0  0  0  0  0  0  0  0
    6.1099   20.5686    0.0000 C   0  0  0  0  0  0  0  0  0  0  0  0
    7.5092   20.5686    0.0000 C   0  0  0  0  0  0  0  0  0  0  0  0
    5.4103   19.3559    0.0000 C   0  0  0  0  0  0  0  0  0  0  0  0
    8.2088   19.3559    0.0000 O   0  0  0  0  0  0  0  0  0  0  0  0
    6.1099   18.1433    0.0000 C   0  0  0  0  0  0  0  0  0  0  0  0
    4.0111   19.3559    0.0000 O   0  0  0  0  0  0  0  0  0  0  0  0
    7.5092   18.1433    0.0000 C   0  0  0  0  0  0  0  0  0  0  0  0
    5.4103   16.9306    0.0000 O   0  0  0  0  0  0  0  0  0  0  0  0
    8.2088   16.9306    0.0000 C   0  0  0  0  0  0  0  0  0  0  0  0
    7.5092   15.7179    0.0000 C   0  0  0  0  0  0  0  0  0  0  0  0
    6.1099   15.7179    0.0000 C   0  0  0  0  0  0  0  0  0  0  0  0
    8.2088   14.5053    0.0000 C   0  0  0  0  0  0  0  0  0  0  0  0
    7.5092   13.2926    0.0000 C   0  0  0  0  0  0  0  0  0  0  0  0
    6.1099   13.2926    0.0000 O   0  0  0  0  0  0  0  0  0  0  0  0
    8.2088   12.0800    0.0000 O   0  0  0  0  0  0  0  0  0  0  0  0
    7.5092   10.8673    0.0000 C   0  0  0  0  0  0  0  0  0  0  0  0
    8.2088    9.6546    0.0000 C   0  0  0  0  0  0  0  0  0  0  0  0
    7.5092    8.4420    0.0000 C   0  0  0  0  0  0  0  0  0  0  0  0
    8.2088    7.2760    0.0000 C   0  0  0  0  0  0  0  0  0  0  0  0
    7.5092    6.0633    0.0000 C   0  0  0  0  0  0  0  0  0  0  0  0
    8.2088    4.8506    0.0000 C   0  0  0  0  0  0  0  0  0  0  0  0
    7.5092    3.6380    0.0000 C   0  0  0  0  0  0  0  0  0  0  0  0
    8.2088    2.4253    0.0000 C   0  0  0  0  0  0  0  0  0  0  0  0
    7.5092    1.2127    0.0000 C   0  0  0  0  0  0  0  0  0  0  0  0
    8.2088    0.0000    0.0000 O   0  0  0  0  0  0  0  0  0  0  0  0
    6.1099    1.2127    0.0000 O   0  0  0  0  0  0  0  0  0  0  0  0
  1  2  1  0  0  0  0 
  2  3  1  0  0  0  0 
  2  4  1  0  0  0  0 
  4  5  1  0  0  0  0 
  4  6  1  0  0  0  0 
  6  7  1  0  0  0  0 
  6  8  1  0  0  0  0 
  7  8  1  0  0  0  0 
  8  9  1  0  0  0  0 
  9 10  1  0  0  0  0 
 10 11  1  0  0  0  0 
 10 12  1  0  0  0  0 
 11 13  1  0  0  0  0 
 14 12  1  0  0  0  0 
 12 15  1  0  0  0  0 
 13 16  1  0  0  0  0 
 16 14  1  0  0  0  0 
 14 17  1  0  0  0  0 
 16 18  1  0  0  0  0 
 18 19  1  0  0  0  0 
 19 20  1  0  0  0  0 
 19 21  2  0  0  0  0 
 21 22  1  0  0  0  0 
 22 23  2  0  0  0  0 
 22 24  1  0  0  0  0 
 24 25  1  0  0  0  0 
 25 26  1  0  0  0  0 
 26 27  1  0  0  0  0 
 27 28  1  0  0  0  0 
 28 29  1  0  0  0  0 
 29 30  1  0  0  0  0 
 30 31  1  0  0  0  0 
 31 32  1  0  0  0  0 
 32 33  1  0  0  0  0 
 33 34  1  0  0  0  0 
 33 35  2  0  0  0  0 
M  END
> <Name>
Nonanoic acid, 9-((3-methyl-1-oxo-4-(tetrahydro-3,4-dihydroxy-5-((3-(2-hydroxy-1-methylpropyl)oxiranyl)methyl)-2H-pyran-2-yl)-2-butenyl)oxy)-, (2S-(2alpha(E),3beta,4beta,5alpha(2R*,3R*(1R*,2R*))))-

> <Source>
IndexNet2DMolFile

> <Tox>
2.001

> <CAS>
12650-69-0

$$$$

  CDK

 38 40  0  0  0  0  0  0  0  0999 V2000
    8.3860   -5.0107    0.0000 O   0  0  0  0  0  0  0  0  0  0  0  0
    8.3730   -3.8987    0.0000 C   0  0  0  0  0  0  0  0  0  0  0  0
    7.1694   -4.5920    0.0000 C   0  0  0  0  0  0  0  0  0  0  0  0
    9.7336   -3.9117    0.0000 N   0  0  0  0  0  0  0  0  0  0  0  0
    5.9657   -3.8987    0.0000 N   0  0  0  0  0  0  0  0  0  0  0  0
    7.1824   -5.6910    0.0000 C   0  0  0  0  0  0  0  0  0  0  0  0
    9.7467   -2.5250    0.0000 C   0  0  0  0  0  0  0  0  0  0  0  0
   11.0549   -4.3566    0.0000 C   0  0  0  0  0  0  0  0  0  0  0  0
    4.7621   -4.5920    0.0000 C   0  0  0  0  0  0  0  0  0  0  0  0
    6.0181   -6.5937    0.0000 O   0  0  0  0  0  0  0  0  0  0  0  0
    8.3730   -2.4988    0.0000 C   0  0  0  0  0  0  0  0  0  0  0  0
   11.0811   -2.1194    0.0000 C   0  0  0  0  0  0  0  0  0  0  0  0
   11.8791   -3.2445    0.0000 C   0  0  0  0  0  0  0  0  0  0  0  0
    4.7621   -5.5863    0.0000 O   0  0  0  0  0  0  0  0  0  0  0  0
    3.5585   -3.8987    0.0000 C   0  0  0  0  0  0  0  0  0  0  0  0
    7.1694   -1.8054    0.0000 N   0  0  0  0  0  0  0  0  0  0  0  0
    8.3599   -1.4129    0.0000 O   0  0  0  0  0  0  0  0  0  0  0  0
   11.7221   -0.6280    0.0000 Cl  0  0  0  0  0  0  0  0  0  0  0  0
   13.0828   -3.2445    0.0000 Cl  0  0  0  0  0  0  0  0  0  0  0  0
    2.3549   -4.5920    0.0000 C   0  0  0  0  0  0  0  0  0  0  0  0
    5.9657   -2.4988    0.0000 C   0  0  0  0  0  0  0  0  0  0  0  0
    2.3549   -5.6779    0.0000 C   0  0  0  0  0  0  0  0  0  0  0  0
    1.1513   -3.8987    0.0000 N   0  0  0  0  0  0  0  0  0  0  0  0
    4.7621   -1.8054    0.0000 C   0  0  0  0  0  0  0  0  0  0  0  0
    5.9788   -0.8896    0.0000 C   0  0  0  0  0  0  0  0  0  0  0  0
    3.5585   -6.3713    0.0000 C   0  0  0  0  0  0  0  0  0  0  0  0
    1.1513   -6.3713    0.0000 C   0  0  0  0  0  0  0  0  0  0  0  0
    1.1513   -2.4988    0.0000 C   0  0  0  0  0  0  0  0  0  0  0  0
    3.5585   -2.4988    0.0000 N   0  0  0  0  0  0  0  0  0  0  0  0
    4.7621   -0.8896    0.0000 O   0  0  0  0  0  0  0  0  0  0  0  0
    7.1301   -0.0000    0.0000 C   0  0  0  0  0  0  0  0  0  0  0  0
    3.5585   -7.7581    0.0000 C   0  0  0  0  0  0  0  0  0  0  0  0
    1.1513   -7.7581    0.0000 C   0  0  0  0  0  0  0  0  0  0  0  0
    2.3549   -1.8054    0.0000 C   0  0  0  0  0  0  0  0  0  0  0  0
    0.0000   -1.9886    0.0000 O   0  0  0  0  0  0  0  0  0  0  0  0
    2.3549   -8.4515    0.0000 C   0  0  0  0  0  0  0  0  0  0  0  0
    2.3549   -0.7850    0.0000 C   0  0  0  0  0  0  0  0  0  0  0  0
    1.2559   -0.3271    0.0000 O   0  0  0  0  0  0  0  0  0  0  0  0
  1  2  2  0  0  0  0 
  2  3  1  0  0  0  0 
  2  4  1  0  0  0  0 
  5  3  1  0  0  0  0 
  3  6  1  0  0  0  0 
  7  4  1  0  0  0  0 
  4  8  1  0  0  0  0 
  5  9  1  0  0  0  0 
  6 10  1  0  0  0  0 
 11  7  1  0  0  0  0 
  7 12  1  0  0  0  0 
 13  8  1  0  0  0  0 
 14  9  2  0  0  0  0 
 15  9  1  0  0  0  0 
 11 16  1  0  0  0  0 
 11 17  2  0  0  0  0 
 12 13  1  0  0  0  0 
 12 18  1  0  0  0  0 
 13 19  1  0  0  0  0 
 15 20  1  0  0  0  0 
 21 16  1  0  0  0  0 
 22 20  1  0  0  0  0 
 20 23  1  0  0  0  0 
 21 24  1  0  0  0  0 
 21 25  1  0  0  0  0 
 26 22  2  0  0  0  0 
 22 27  1  0  0  0  0 
 28 23  1  0  0  0  0 
 29 24  1  0  0  0  0 
 24 30  2  0  0  0  0 
 25 31  1  0  0  0  0 
 26 32  1  0  0  0  0 
 27 33  2  0  0  0  0 
 34 28  1  0  0  0  0 
 28 35  2  0  0  0  0 
 29 34  1  0  0  0  0 
 32 36  2  0  0  0  0 
 36 33  1  0  0  0  0 
 34 37  1  0  0  0  0 
 37 38  1  0  0  0  0 
M  END
> <Name>
Cyclic(L-3-phenyl-beta-alanyl-L-seryl-(3S-cis)-3,4-dichloro-L-prolyl-L-alpha-aminobutyryl-L-seryl)

> <Source>
DSSTox2DMolFile

> <Tox>
5.059

> <CAS>
12663-46-6

$$$$

  CDK

 11 10  0  0  0  0  0  0  0  0999 V2000
   -1.7518   -0.9700    0.2505 C   0  0  0  0  0  0  0  0  0  0  0  0
   -0.3628   -0.9457   -0.4244 C   0  0  0  0  0  0  0  0  0  0  0  0
   -2.4102    0.2311   -0.1222 O   0  0  0  0  0  0  0  0  0  0  0  0
    0.6029   -0.0472    0.3794 C   0  0  0  0  0  0  0  0  0  0  0  0
    0.0728   -2.2928   -0.4480 O   0  0  0  0  0  0  0  0  0  0  0  0
   -3.7356    0.3177    0.3809 C   0  0  0  0  0  0  0  0  0  0  0  0
    1.7745    0.1011   -0.4072 O   0  0  0  0  0  0  0  0  0  0  0  0
   -4.3042    1.6438   -0.0875 C   0  0  0  0  0  0  0  0  0  0  0  0
    2.8222    0.8279    0.2406 C   0  0  0  0  0  0  0  0  0  0  0  0
    3.6989    1.3838   -0.8773 C   0  0  0  0  0  0  0  0  0  0  0  0
    3.6330   -0.0796    1.1627 C   0  0  0  0  0  0  0  0  0  0  0  0
  1  2  1  0  0  0  0 
  1  3  1  0  0  0  0 
  2  4  1  0  0  0  0 
  2  5  1  0  0  0  0 
  3  6  1  0  0  0  0 
  4  7  1  0  0  0  0 
  6  8  1  0  0  0  0 
  7  9  1  0  0  0  0 
  9 10  1  0  0  0  0 
  9 11  1  0  0  0  0 
M  END
> <Name>
2-Propanol, 1-ethoxy-3-(1-methylethoxy)- (9CI)

> <Source>
DougDB3DMolFile

> <Tox>
1.511

> <CAS>
13021-50-6

$$$$

  CDK

 16 15  0  0  0  0  0  0  0  0999 V2000
    1.1548   -0.0000    0.0000 O   0  0  0  0  0  0  0  0  0  0  0  0
    1.1548   -1.3325    0.0000 C   0  0  0  0  0  0  0  0  0  0  0  0
    2.3097   -1.9924    0.0000 O   0  0  0  0  0  0  0  0  0  0  0  0
    0.0000   -1.9924    0.0000 C   0  0  0  0  0  0  0  0  0  0  0  0
    3.4645   -1.3325    0.0000 C   0  0  0  0  0  0  0  0  0  0  0  0
    0.0000   -3.3249    0.0000 C   0  0  0  0  0  0  0  0  0  0  0  0
    4.6194   -1.9924    0.0000 C   0  0  0  0  0  0  0  0  0  0  0  0
    5.7615   -1.3325    0.0000 C   0  0  0  0  0  0  0  0  0  0  0  0
    6.9164   -1.9924    0.0000 C   0  0  0  0  0  0  0  0  0  0  0  0
    8.0712   -1.3325    0.0000 C   0  0  0  0  0  0  0  0  0  0  0  0
    9.2260   -1.9924    0.0000 C   0  0  0  0  0  0  0  0  0  0  0  0
   10.3809   -1.3325    0.0000 O   0  0  0  0  0  0  0  0  0  0  0  0
   11.5357   -1.9924    0.0000 C   0  0  0  0  0  0  0  0  0  0  0  0
   11.5357   -3.3249    0.0000 O   0  0  0  0  0  0  0  0  0  0  0  0
   12.6906   -1.3325    0.0000 C   0  0  0  0  0  0  0  0  0  0  0  0
   12.6906   -0.0000    0.0000 C   0  0  0  0  0  0  0  0  0  0  0  0
  1  2  2  0  0  0  0 
  2  3  1  0  0  0  0 
  2  4  1  0  0  0  0 
  3  5  1  0  0  0  0 
  4  6  2  0  0  0  0 
  5  7  1  0  0  0  0 
  7  8  1  0  0  0  0 
  8  9  1  0  0  0  0 
  9 10  1  0  0  0  0 
 10 11  1  0  0  0  0 
 11 12  1  0  0  0  0 
 12 13  1  0  0  0  0 
 13 14  2  0  0  0  0 
 13 15  1  0  0  0  0 
 15 16  2  0  0  0  0 
M  END
> <Name>
2-Propenoic acid, 1,6-hexanediyl ester

> <Source>
DSSTox2DMolFile

> <Tox>
1.656

> <CAS>
13048-33-4

$$$$

  CDK

 27 30  0  0  0  0  0  0  0  0999 V2000
    2.9432   -2.1019   -5.0289 O   0  0  0  0  0  0  0  0  0  0  0  0
    3.6691   -1.6840   -3.8723 C   0  0  0  0  0  0  0  0  0  0  0  0
    2.1143   -3.2255   -4.7294 C   0  0  0  0  0  0  0  0  0  0  0  0
    2.7077   -1.2930   -2.7536 C   0  0  0  0  0  0  0  0  0  0  0  0
    1.1149   -2.8709   -3.6321 C   0  0  0  0  0  0  0  0  0  0  0  0
    1.8323   -2.4278   -2.4287 N   0  0  0  0  0  0  0  0  0  0  0  0
    0.8938   -2.0717   -1.3666 C   0  0  0  0  0  0  0  0  0  0  0  0
    1.6379   -1.7140   -0.0752 C   0  0  0  0  0  0  0  0  0  0  0  0
    2.5161   -2.8729    0.4577 C   0  0  0  0  0  0  0  0  0  0  0  0
    3.3189   -2.3921    1.6928 C   0  0  0  0  0  0  0  0  0  0  0  0
    1.6979   -4.1187    0.7594 C   0  0  0  0  0  0  0  0  0  0  0  0
    4.2940   -3.4217    2.2772 C   0  0  0  0  0  0  0  0  0  0  0  0
    1.9196   -5.3109    0.0750 C   0  0  0  0  0  0  0  0  0  0  0  0
    0.7308   -3.9982    1.7432 C   0  0  0  0  0  0  0  0  0  0  0  0
    5.3365   -3.7930    1.3227 N   0  0  0  0  0  0  0  0  0  0  0  0
    1.1242   -6.4347    0.4027 C   0  0  0  0  0  0  0  0  0  0  0  0
    2.9007   -5.4313   -0.9226 C   0  0  0  0  0  0  0  0  0  0  0  0
   -0.0510   -5.1035    2.0657 C   0  0  0  0  0  0  0  0  0  0  0  0
    6.2641   -4.7665    1.9156 C   0  0  0  0  0  0  0  0  0  0  0  0
    6.0746   -2.6063    0.8685 C   0  0  0  0  0  0  0  0  0  0  0  0
    0.1432   -6.3145    1.4006 C   0  0  0  0  0  0  0  0  0  0  0  0
    1.3334   -7.6458   -0.2768 C   0  0  0  0  0  0  0  0  0  0  0  0
    3.0946   -6.6422   -1.5878 C   0  0  0  0  0  0  0  0  0  0  0  0
    7.3497   -5.1290    0.9062 C   0  0  0  0  0  0  0  0  0  0  0  0
    7.1638   -3.0202   -0.1169 C   0  0  0  0  0  0  0  0  0  0  0  0
    2.3125   -7.7474   -1.2656 C   0  0  0  0  0  0  0  0  0  0  0  0
    8.0534   -3.9580    0.4903 O   0  0  0  0  0  0  0  0  0  0  0  0
  1  2  1  0  0  0  0 
  1  3  1  0  0  0  0 
  4  2  1  0  0  0  0 
  5  3  1  0  0  0  0 
  6  4  1  0  0  0  0 
  6  5  1  0  0  0  0 
  6  7  1  0  0  0  0 
  8  7  1  0  0  0  0 
  9  8  1  0  0  0  0 
  9 10  1  0  0  0  0 
  9 11  1  0  0  0  0 
 10 12  1  0  0  0  0 
 11 13  1  0  0  0  0 
 11 14  2  0  0  0  0 
 15 12  1  0  0  0  0 
 13 16  1  0  0  0  0 
 13 17  2  0  0  0  0 
 14 18  1  0  0  0  0 
 15 19  1  0  0  0  0 
 15 20  1  0  0  0  0 
 16 21  1  0  0  0  0 
 16 22  2  0  0  0  0 
 17 23  1  0  0  0  0 
 18 21  2  0  0  0  0 
 19 24  1  0  0  0  0 
 20 25  1  0  0  0  0 
 22 26  1  0  0  0  0 
 23 26  2  0  0  0  0 
 27 24  1  0  0  0  0 
 27 25  1  0  0  0  0 
M  END
> <Name>
Morpholine, 4,4'-(3-(1-naphthyl)-1,5-pentamethylene)di-,

> <Source>
Chemidplus3DMolFile

> <Tox>
2.716

> <CAS>
13071-27-7

$$$$

  CDK

 31 34  0  0  0  0  0  0  0  0999 V2000
    6.1226    0.5019    0.0000 C   0  0  0  0  0  0  0  0  0  0  0  0
    6.1226    1.5557    0.0000 C   0  0  0  0  0  0  0  0  0  0  0  0
    5.2193    0.0000    0.0000 C   0  0  0  0  0  0  0  0  0  0  0  0
    5.2193    1.9572    0.0000 C   0  0  0  0  0  0  0  0  0  0  0  0
    6.9256    2.0074    0.0000 S   0  0  0  0  0  0  0  0  0  0  0  0
    4.3661    0.5019    0.0000 C   0  0  0  0  0  0  0  0  0  0  0  0
    4.3661    1.5557    0.0000 C   0  0  0  0  0  0  0  0  0  0  0  0
    7.7787    2.5093    0.0000 C   0  0  0  0  0  0  0  0  0  0  0  0
    6.4739    2.8606    0.0000 O   0  0  0  0  0  0  0  0  0  0  0  0
    7.4274    1.1543    0.0000 O   0  0  0  0  0  0  0  0  0  0  0  0
    3.5130    0.0000    0.0000 O   0  0  0  0  0  0  0  0  0  0  0  0
    7.7787    3.5130    0.0000 C   0  0  0  0  0  0  0  0  0  0  0  0
    8.6319    2.0074    0.0000 C   0  0  0  0  0  0  0  0  0  0  0  0
    2.6096    0.5019    0.0000 C   0  0  0  0  0  0  0  0  0  0  0  0
    8.6319    4.0148    0.0000 C   0  0  0  0  0  0  0  0  0  0  0  0
    9.5352    2.5093    0.0000 C   0  0  0  0  0  0  0  0  0  0  0  0
    1.7565    0.0000    0.0000 C   0  0  0  0  0  0  0  0  0  0  0  0
    2.6096    1.5056    0.0000 C   0  0  0  0  0  0  0  0  0  0  0  0
    9.5352    3.5130    0.0000 C   0  0  0  0  0  0  0  0  0  0  0  0
    0.8531    0.5019    0.0000 C   0  0  0  0  0  0  0  0  0  0  0  0
    1.7565    1.9572    0.0000 C   0  0  0  0  0  0  0  0  0  0  0  0
   10.3883    4.0148    0.0000 O   0  0  0  0  0  0  0  0  0  0  0  0
    0.8531    1.5056    0.0000 C   0  0  0  0  0  0  0  0  0  0  0  0
   11.2917    3.5130    0.0000 C   0  0  0  0  0  0  0  0  0  0  0  0
    0.0000    1.9572    0.0000 N   0  0  0  0  0  0  0  0  0  0  0  0
   12.1448    4.0148    0.0000 C   0  0  0  0  0  0  0  0  0  0  0  0
   11.2917    2.5093    0.0000 C   0  0  0  0  0  0  0  0  0  0  0  0
   12.9980    3.5130    0.0000 C   0  0  0  0  0  0  0  0  0  0  0  0
   12.1448    2.0074    0.0000 C   0  0  0  0  0  0  0  0  0  0  0  0
   12.9980    2.5093    0.0000 C   0  0  0  0  0  0  0  0  0  0  0  0
   13.9013    2.0074    0.0000 N   0  0  0  0  0  0  0  0  0  0  0  0
  2  1  2  0  0  0  0 
  1  3  1  0  0  0  0 
  4  2  1  0  0  0  0 
  2  5  1  0  0  0  0 
  3  6  2  0  0  0  0 
  7  4  2  0  0  0  0 
  5  8  1  0  0  0  0 
  5  9  2  0  0  0  0 
  5 10  2  0  0  0  0 
  6  7  1  0  0  0  0 
  6 11  1  0  0  0  0 
  8 12  1  0  0  0  0 
 13  8  2  0  0  0  0 
 11 14  1  0  0  0  0 
 12 15  2  0  0  0  0 
 16 13  1  0  0  0  0 
 14 17  2  0  0  0  0 
 18 14  1  0  0  0  0 
 15 19  1  0  0  0  0 
 19 16  2  0  0  0  0 
 17 20  1  0  0  0  0 
 21 18  2  0  0  0  0 
 19 22  1  0  0  0  0 
 20 23  2  0  0  0  0 
 23 21  1  0  0  0  0 
 22 24  1  0  0  0  0 
 23 25  1  0  0  0  0 
 24 26  2  0  0  0  0 
 27 24  1  0  0  0  0 
 26 28  1  0  0  0  0 
 29 27  2  0  0  0  0 
 28 30  2  0  0  0  0 
 30 29  1  0  0  0  0 
 30 31  1  0  0  0  0 
M  END
> <Name>
Benzenamine, 4,4'-(sulfonylbis(4,1-phenyleneoxy))bis-

> <Source>
NIST2DMolFile

> <Tox>
3.294

> <CAS>
13080-89-2

$$$$

  CDK

 20 21  0  0  0  0  0  0  0  0999 V2000
    1.3979   -0.4766    0.0000 C   0  0  0  0  0  0  0  0  0  0  0  0
    0.6133   -0.2216    0.0000 C   0  0  0  0  0  0  0  0  0  0  0  0
    1.3979   -1.3016    0.0000 C   0  0  0  0  0  0  0  0  0  0  0  0
    2.1124   -0.0641    0.0000 C   0  0  0  0  0  0  0  0  0  0  0  0
    0.3583    0.5630    0.0000 O   0  0  0  0  0  0  0  0  0  0  0  0
    0.1284   -0.8891    0.0000 N   0  0  0  0  0  0  0  0  0  0  0  0
    0.6133   -1.5565    0.0000 C   0  0  0  0  0  0  0  0  0  0  0  0
    2.1124   -1.7141    0.0000 C   0  0  0  0  0  0  0  0  0  0  0  0
    2.8268   -0.4766    0.0000 C   0  0  0  0  0  0  0  0  0  0  0  0
   -0.6966   -0.8891    0.0000 C   0  0  0  0  0  0  0  0  0  0  0  0
    0.3583   -2.3411    0.0000 O   0  0  0  0  0  0  0  0  0  0  0  0
    2.8268   -1.3016    0.0000 C   0  0  0  0  0  0  0  0  0  0  0  0
   -1.5216   -0.8891    0.0000 S   0  0  0  0  0  0  0  0  0  0  0  0
   -1.9341   -0.1746    0.0000 P   0  0  0  0  0  0  0  0  0  0  0  0
   -2.6486   -0.5871    0.0000 S   0  0  0  0  0  0  0  0  0  0  0  0
   -2.3466    0.5399    0.0000 O   0  0  0  0  0  0  0  0  0  0  0  0
   -1.2197    0.2379    0.0000 O   0  0  0  0  0  0  0  0  0  0  0  0
   -1.9341    1.2543    0.0000 C   0  0  0  0  0  0  0  0  0  0  0  0
   -0.8072    0.9524    0.0000 C   0  0  0  0  0  0  0  0  0  0  0  0
   -1.5216    1.9688    0.0000 C   0  0  0  0  0  0  0  0  0  0  0  0
  1  2  1  0  0  0  0 
  1  3  1  0  0  0  0 
  1  4  2  0  0  0  0 
  2  5  2  0  0  0  0 
  2  6  1  0  0  0  0 
  7  3  1  0  0  0  0 
  3  8  2  0  0  0  0 
  9  4  1  0  0  0  0 
  6 10  1  0  0  0  0 
  6  7  1  0  0  0  0 
  7 11  2  0  0  0  0 
  8 12  1  0  0  0  0 
 12  9  2  0  0  0  0 
 10 13  1  0  0  0  0 
 13 14  1  0  0  0  0 
 14 15  2  0  0  0  0 
 14 16  1  0  0  0  0 
 14 17  1  0  0  0  0 
 16 18  1  0  0  0  0 
 17 19  1  0  0  0  0 
 18 20  1  0  0  0  0 
M  END
> <Name>
Phosphorodithioic acid, O-ethyl O-methyl ester, S-ester with N-(mercaptomethyl)phthalimide

> <Source>
Smiles

> <Tox>
3.821

> <CAS>
13104-29-5

$$$$

  CDK

 11 12  0  0  0  0  0  0  0  0999 V2000
    2.2229    0.2674    0.0000 N   0  0  0  0  0  0  0  0  0  0  0  0
    1.4000    1.4000    0.0000 C   0  0  0  0  0  0  0  0  0  0  0  0
    3.5544    0.7000    0.0000 C   0  0  0  0  0  0  0  0  0  0  0  0
    2.2229    2.5326    0.0000 N   0  0  0  0  0  0  0  0  0  0  0  0
    0.0000    1.4000    0.0000 O   0  0  0  0  0  0  0  0  0  0  0  0
    4.7668    0.0000    0.0000 C   0  0  0  0  0  0  0  0  0  0  0  0
    3.5544    2.1000    0.0000 C   0  0  0  0  0  0  0  0  0  0  0  0
    5.9792    0.7000    0.0000 N   0  0  0  0  0  0  0  0  0  0  0  0
    4.7668    2.8000    0.0000 N   0  0  0  0  0  0  0  0  0  0  0  0
    5.9792    2.1000    0.0000 C   0  0  0  0  0  0  0  0  0  0  0  0
    7.1917    2.8000    0.0000 O   0  0  0  0  0  0  0  0  0  0  0  0
  1  2  1  0  0  0  0 
  1  3  1  0  0  0  0 
  2  4  1  0  0  0  0 
  2  5  2  0  0  0  0 
  6  3  2  0  0  0  0 
  7  3  1  0  0  0  0 
  4  7  2  0  0  0  0 
  8  6  1  0  0  0  0 
  7  9  1  0  0  0  0 
 10  8  1  0  0  0  0 
  9 10  1  0  0  0  0 
 10 11  2  0  0  0  0 
M  END
> <Name>
1H-Purine-2,8(3H,7H)-dione

> <Source>
Name2DMolFile

> <Tox>
1.922

> <CAS>
13230-99-4

$$$$

  CDK

 13 12  0  0  0  0  0  0  0  0999 V2000
    3.9838   -8.0481    0.0000 C   0  0  0  0  0  0  0  0  0  0  0  0
    2.6559   -8.0481    0.0000 O   0  0  0  0  0  0  0  0  0  0  0  0
    1.9959   -6.8972    0.0000 P   0  0  0  0  0  0  0  0  0  0  0  0
    0.8370   -7.5652    0.0000 S   0  0  0  0  0  0  0  0  0  0  0  0
    1.3199   -5.7544    0.0000 S   0  0  0  0  0  0  0  0  0  0  0  0
    3.1468   -6.2372    0.0000 O   0  0  0  0  0  0  0  0  0  0  0  0
    1.9959   -4.6035    0.0000 C   0  0  0  0  0  0  0  0  0  0  0  0
    4.2896   -6.8972    0.0000 C   0  0  0  0  0  0  0  0  0  0  0  0
    1.3199   -3.4446    0.0000 C   0  0  0  0  0  0  0  0  0  0  0  0
    1.9959   -2.2937    0.0000 N   0  0  0  0  0  0  0  0  0  0  0  0
    1.3199   -1.1509    0.0000 C   0  0  0  0  0  0  0  0  0  0  0  0
    0.0000   -1.1509    0.0000 C   0  0  0  0  0  0  0  0  0  0  0  0
    1.9959   -0.0000    0.0000 O   0  0  0  0  0  0  0  0  0  0  0  0
  1  2  1  0  0  0  0 
  2  3  1  0  0  0  0 
  4  3  2  0  0  0  0 
  3  5  1  0  0  0  0 
  3  6  1  0  0  0  0 
  5  7  1  0  0  0  0 
  6  8  1  0  0  0  0 
  7  9  1  0  0  0  0 
  9 10  1  0  0  0  0 
 10 11  1  0  0  0  0 
 12 11  1  0  0  0  0 
 11 13  2  0  0  0  0 
M  END
> <Name>
Phosphorodithioic acid, S-(2-(acetylamino)ethyl) O,O-dimethyl ester

> <Source>
DSSTox2DMolFile

> <Tox>
3.044

> <CAS>
13265-60-6

$$$$

  CDK

  8  7  0  0  0  0  0  0  0  0999 V2000
    2.9031    2.1385   -2.9122 Cl  0  0  0  0  0  0  0  0  0  0  0  0
    1.2508    1.1004   -2.4233 P   0  0  0  0  0  0  0  0  0  0  0  0
   -0.3253    2.2286   -2.4981 S   0  0  0  0  0  0  0  0  0  0  0  0
    1.3404   -0.2068   -3.3798 O   0  0  0  0  0  0  0  0  0  0  0  0
    1.6793    0.5059   -0.9745 O   0  0  0  0  0  0  0  0  0  0  0  0
    1.0349   -0.1098   -4.7603 C   0  0  0  0  0  0  0  0  0  0  0  0
    0.9101   -0.5332   -0.3931 C   0  0  0  0  0  0  0  0  0  0  0  0
    1.2019   -1.4720   -5.3992 C   0  0  0  0  0  0  0  0  0  0  0  0
  1  2  1  0  0  0  0 
  3  2  2  0  0  0  0 
  2  4  1  0  0  0  0 
  2  5  1  0  0  0  0 
  4  6  1  0  0  0  0 
  5  7  1  0  0  0  0 
  6  8  1  0  0  0  0 
M  END
> <Name>
Phosphorochloridothioic acid, O-ethyl O-methyl ester

> <Source>
Chemidplus3DMolFile

> <Tox>
2.397

> <CAS>
13289-13-9

$$$$

  CDK

 15 15  0  0  0  0  0  0  0  0999 V2000
   -1.3470    1.6645   -2.0885 Cl  0  0  0  0  0  0  0  0  0  0  0  0
   -1.6690    1.9264   -0.4142 C   0  0  0  0  0  0  0  0  0  0  0  0
   -0.7683    1.5185    0.5651 C   0  0  0  0  0  0  0  0  0  0  0  0
   -2.8560    2.5583   -0.0434 C   0  0  0  0  0  0  0  0  0  0  0  0
    0.4044    0.8952    0.2295 O   0  0  0  0  0  0  0  0  0  0  0  0
   -1.0436    1.7363    1.9118 C   0  0  0  0  0  0  0  0  0  0  0  0
   -3.1368    2.7791    1.3050 C   0  0  0  0  0  0  0  0  0  0  0  0
    0.6018   -0.4173    0.7429 C   0  0  0  0  0  0  0  0  0  0  0  0
   -2.2305    2.3680    2.2826 C   0  0  0  0  0  0  0  0  0  0  0  0
   -4.6003    3.5598    1.7639 Cl  0  0  0  0  0  0  0  0  0  0  0  0
    1.9294   -0.9716    0.2206 C   0  0  0  0  0  0  0  0  0  0  0  0
    2.1818   -2.3692    0.7757 C   0  0  0  0  0  0  0  0  0  0  0  0
    1.9391   -1.0297   -1.2999 C   0  0  0  0  0  0  0  0  0  0  0  0
    3.1804   -0.8198   -1.8116 O   0  0  0  0  0  0  0  0  0  0  0  0
    0.9575   -1.2296   -2.0030 O   0  0  0  0  0  0  0  0  0  0  0  0
  1  2  1  0  0  0  0 
  3  2  2  0  0  0  0 
  2  4  1  0  0  0  0 
  5  3  1  0  0  0  0 
  3  6  1  0  0  0  0 
  4  7  2  0  0  0  0 
  5  8  1  0  0  0  0 
  6  9  2  0  0  0  0 
 10  7  1  0  0  0  0 
  9  7  1  0  0  0  0 
 11  8  1  0  0  0  0 
 11 12  1  0  0  0  0 
 11 13  1  0  0  0  0 
 14 13  1  0  0  0  0 
 15 13  2  0  0  0  0 
M  END
> <Name>
Propionic acid, 3-(2,4-dichlorophenoxy)-2-methyl-

> <Source>
Chemidplus3DMolFile

> <Tox>
2.493

> <CAS>
13330-31-9

$$$$

  CDK

 15 15  0  0  0  0  0  0  0  0999 V2000
   -4.6018   -0.2672    0.2348 N   0  0  0  0  0  0  0  0  0  0  0  0
   -3.2131   -0.7078    0.1091 C   0  0  0  0  0  0  0  0  0  0  0  0
   -5.6503   -1.2820    0.0219 C   0  0  0  0  0  0  0  0  0  0  0  0
   -4.8489    0.9236   -0.6622 O   0  0  0  0  0  0  0  0  0  0  0  0
   -2.9418   -1.9039    0.0567 O   0  0  0  0  0  0  0  0  0  0  0  0
   -2.2162    0.2905    0.1763 N   0  0  0  0  0  0  0  0  0  0  0  0
   -5.4316    1.9633    0.0687 C   0  0  0  0  0  0  0  0  0  0  0  0
   -0.8095    0.0366    0.1017 C   0  0  0  0  0  0  0  0  0  0  0  0
    0.0602    1.1396    0.1085 C   0  0  0  0  0  0  0  0  0  0  0  0
   -0.3115   -1.2745    0.0409 C   0  0  0  0  0  0  0  0  0  0  0  0
    1.4309    0.9080    0.0577 C   0  0  0  0  0  0  0  0  0  0  0  0
    1.0610   -1.4911   -0.0103 C   0  0  0  0  0  0  0  0  0  0  0  0
    1.8973   -0.3943    0.0002 C   0  0  0  0  0  0  0  0  0  0  0  0
    2.5352    2.1659    0.0634 Cl  0  0  0  0  0  0  0  0  0  0  0  0
    3.7441   -0.6149   -0.0653 Br  0  0  0  0  0  0  0  0  0  0  0  0
  1  2  1  0  0  0  0 
  1  3  1  0  0  0  0 
  1  4  1  0  0  0  0 
  2  5  2  0  0  0  0 
  2  6  1  0  0  0  0 
  4  7  1  0  0  0  0 
  6  8  1  0  0  0  0 
  8  9  1  0  0  0  0 
  8 10  2  0  0  0  0 
  9 11  2  0  0  0  0 
 12 10  1  0  0  0  0 
 11 13  1  0  0  0  0 
 11 14  1  0  0  0  0 
 13 12  2  0  0  0  0 
 13 15  1  0  0  0  0 
M  END
> <Name>
Urea, 3-(4-bromo-3-chlorophenyl)-1-methoxy-1-methyl-

> <Source>
DougDB3DMolFile

> <Tox>
2.135

> <CAS>
13360-45-7

$$$$

  CDK

  9  9  0  0  0  0  0  0  0  0999 V2000
    0.0000    0.0000    0.0000 C   0  0  0  0  0  0  0  0  0  0  0  0
    0.5039    0.8566    0.0000 C   0  0  0  0  0  0  0  0  0  0  0  0
    1.5116    0.8566    0.0000 C   0  0  0  0  0  0  0  0  0  0  0  0
    2.0155    1.7132    0.0000 C   0  0  0  0  0  0  0  0  0  0  0  0
    2.0155    0.0000    0.0000 N   0  0  0  0  0  0  0  0  0  0  0  0
    3.0233    1.7132    0.0000 N   0  0  0  0  0  0  0  0  0  0  0  0
    3.0233    0.0000    0.0000 C   0  0  0  0  0  0  0  0  0  0  0  0
    3.5271    0.8566    0.0000 C   0  0  0  0  0  0  0  0  0  0  0  0
    4.5349    0.8566    0.0000 C   0  0  0  0  0  0  0  0  0  0  0  0
  1  2  1  0  0  0  0 
  2  3  1  0  0  0  0 
  4  3  2  0  0  0  0 
  3  5  1  0  0  0  0 
  6  4  1  0  0  0  0 
  5  7  2  0  0  0  0 
  8  6  2  0  0  0  0 
  7  8  1  0  0  0  0 
  8  9  1  0  0  0  0 
M  END
> <Name>
Pyrazine, 2-ethyl-5-methyl-

> <Source>
NIST2DMolFile

> <Tox>
2.133

> <CAS>
13360-64-0

$$$$

  CDK

 24 25  0  0  0  0  0  0  0  0999 V2000
    0.8493    5.4956    0.0000 O   0  0  0  0  0  0  0  0  0  0  0  0
    0.8493    4.4964    0.0000 C   0  0  0  0  0  0  0  0  0  0  0  0
    0.0000    5.9952    0.0000 C   0  0  0  0  0  0  0  0  0  0  0  0
    0.0000    3.9968    0.0000 O   0  0  0  0  0  0  0  0  0  0  0  0
    1.7486    3.9968    0.0000 C   0  0  0  0  0  0  0  0  0  0  0  0
    0.0000    6.9943    0.0000 C   0  0  0  0  0  0  0  0  0  0  0  0
    2.5979    4.4964    0.0000 C   0  0  0  0  0  0  0  0  0  0  0  0
    1.7486    2.9976    0.0000 C   0  0  0  0  0  0  0  0  0  0  0  0
    3.4472    3.9968    0.0000 N   0  0  0  0  0  0  0  0  0  0  0  0
    0.8493    2.4980    0.0000 C   0  0  0  0  0  0  0  0  0  0  0  0
    2.5979    2.4980    0.0000 N   0  0  0  0  0  0  0  0  0  0  0  0
    3.4472    2.9976    0.0000 C   0  0  0  0  0  0  0  0  0  0  0  0
    4.3964    4.2965    0.0000 N   0  0  0  0  0  0  0  0  0  0  0  0
    4.3964    2.6479    0.0000 C   0  0  0  0  0  0  0  0  0  0  0  0
    4.9960    3.4972    0.0000 C   0  0  0  0  0  0  0  0  0  0  0  0
    5.9952    3.4972    0.0000 O   0  0  0  0  0  0  0  0  0  0  0  0
    6.4947    2.6479    0.0000 P   0  0  0  0  0  0  0  0  0  0  0  0
    6.9943    1.7486    0.0000 O   0  0  0  0  0  0  0  0  0  0  0  0
    7.3441    3.0975    0.0000 O   0  0  0  0  0  0  0  0  0  0  0  0
    5.6454    2.1483    0.0000 S   0  0  0  0  0  0  0  0  0  0  0  0
    6.4947    0.8993    0.0000 C   0  0  0  0  0  0  0  0  0  0  0  0
    8.2433    2.5979    0.0000 C   0  0  0  0  0  0  0  0  0  0  0  0
    6.9943    0.0000    0.0000 C   0  0  0  0  0  0  0  0  0  0  0  0
    9.0926    3.0975    0.0000 C   0  0  0  0  0  0  0  0  0  0  0  0
  1  2  1  0  0  0  0 
  1  3  1  0  0  0  0 
  2  4  2  0  0  0  0 
  2  5  1  0  0  0  0 
  3  6  1  0  0  0  0 
  5  7  2  0  0  0  0 
  8  5  1  0  0  0  0 
  7  9  1  0  0  0  0 
  8 10  1  0  0  0  0 
 11  8  2  0  0  0  0 
 12  9  1  0  0  0  0 
  9 13  1  0  0  0  0 
 12 11  1  0  0  0  0 
 14 12  2  0  0  0  0 
 13 15  2  0  0  0  0 
 15 14  1  0  0  0  0 
 15 16  1  0  0  0  0 
 16 17  1  0  0  0  0 
 17 18  1  0  0  0  0 
 17 19  1  0  0  0  0 
 17 20  2  0  0  0  0 
 18 21  1  0  0  0  0 
 19 22  1  0  0  0  0 
 21 23  1  0  0  0  0 
 22 24  1  0  0  0  0 
M  END
> <Name>
Pyrazolo(1,5-a)pyrimidine-6-carboxylic acid, 2-hydroxy-5-methyl-, ethyl ester, O-ester with O,O-diethyl phosphorothioate (8CI)

> <Source>
NIST2DMolFile

> <Tox>
3.234

> <CAS>
13457-18-6

$$$$

  CDK

 22 24  0  0  0  0  0  0  0  0999 V2000
   -0.1196    4.4510    6.1568 F   0  0  0  0  0  0  0  0  0  0  0  0
    0.4505    3.6804    5.1834 C   0  0  0  0  0  0  0  0  0  0  0  0
    1.6517    4.2742    4.9177 F   0  0  0  0  0  0  0  0  0  0  0  0
   -0.3104    3.8786    4.0676 F   0  0  0  0  0  0  0  0  0  0  0  0
    0.5649    2.2400    5.5516 C   0  0  0  0  0  0  0  0  0  0  0  0
    1.1287    1.3330    4.6543 C   0  0  0  0  0  0  0  0  0  0  0  0
    0.1086    1.7998    6.7941 C   0  0  0  0  0  0  0  0  0  0  0  0
    1.2378   -0.0172    4.9966 C   0  0  0  0  0  0  0  0  0  0  0  0
    0.2159    0.4527    7.1393 C   0  0  0  0  0  0  0  0  0  0  0  0
    1.8057   -0.9320    4.0923 N   0  0  0  0  0  0  0  0  0  0  0  0
    0.7798   -0.4544    6.2420 C   0  0  0  0  0  0  0  0  0  0  0  0
    1.8509   -0.9767    2.6799 C   0  0  0  0  0  0  0  0  0  0  0  0
    2.9180   -1.5734    2.0082 C   0  0  0  0  0  0  0  0  0  0  0  0
    0.8008   -0.4105    1.9570 C   0  0  0  0  0  0  0  0  0  0  0  0
    2.9348   -1.6038    0.6137 C   0  0  0  0  0  0  0  0  0  0  0  0
    4.0148   -2.1682    2.7257 C   0  0  0  0  0  0  0  0  0  0  0  0
    0.8176   -0.4410    0.5626 C   0  0  0  0  0  0  0  0  0  0  0  0
    1.8846   -1.0376   -0.1090 C   0  0  0  0  0  0  0  0  0  0  0  0
    4.7180   -3.2007    2.2633 N   0  0  0  0  0  0  0  0  0  0  0  0
    4.4147   -1.7129    3.9432 N   0  0  0  0  0  0  0  0  0  0  0  0
    5.5761   -3.3457    3.2828 N   0  0  0  0  0  0  0  0  0  0  0  0
    5.4335   -2.4852    4.3004 N   0  0  0  0  0  0  0  0  0  0  0  0
  1  2  1  0  0  0  0 
  3  2  1  0  0  0  0 
  4  2  1  0  0  0  0 
  5  2  1  0  0  0  0 
  6  5  2  0  0  0  0 
  5  7  1  0  0  0  0 
  8  6  1  0  0  0  0 
  7  9  2  0  0  0  0 
 10  8  1  0  0  0  0 
  8 11  2  0  0  0  0 
 11  9  1  0  0  0  0 
 10 12  1  0  0  0  0 
 12 13  1  0  0  0  0 
 12 14  2  0  0  0  0 
 13 15  2  0  0  0  0 
 13 16  1  0  0  0  0 
 14 17  1  0  0  0  0 
 15 18  1  0  0  0  0 
 19 16  2  0  0  0  0 
 20 16  1  0  0  0  0 
 17 18  2  0  0  0  0 
 19 21  1  0  0  0  0 
 20 22  2  0  0  0  0 
 21 22  1  0  0  0  0 
M  END
> <Name>
1H-Tetrazole, 5-(o-(alpha,alpha,alpha-trifluoro-m-toluidino)phenyl)-

> <Source>
Chemidplus3DMolFile

> <Tox>
2.827

> <CAS>
13481-63-5

$$$$

  CDK

 16 17  0  0  0  0  0  0  0  0999 V2000
    1.4000    2.1000    0.0000 P   0  0  0  0  0  0  0  0  0  0  0  0
    1.4000    0.7000    0.0000 N   0  0  0  0  0  0  0  0  0  0  0  0
    0.0000    2.1000    0.0000 S   0  0  0  0  0  0  0  0  0  0  0  0
    2.8000    2.1000    0.0000 C   0  0  0  0  0  0  0  0  0  0  0  0
    1.4000    3.5000    0.0000 N   0  0  0  0  0  0  0  0  0  0  0  0
    2.6124    0.0000    0.0000 C   0  0  0  0  0  0  0  0  0  0  0  0
    0.1876    0.0000    0.0000 C   0  0  0  0  0  0  0  0  0  0  0  0
    3.5000    3.3124    0.0000 C   0  0  0  0  0  0  0  0  0  0  0  0
    3.5000    0.8876    0.0000 C   0  0  0  0  0  0  0  0  0  0  0  0
    2.5326    4.3229    0.0000 C   0  0  0  0  0  0  0  0  0  0  0  0
    0.2674    4.3229    0.0000 C   0  0  0  0  0  0  0  0  0  0  0  0
    4.9000    3.3124    0.0000 C   0  0  0  0  0  0  0  0  0  0  0  0
    4.9000    0.8876    0.0000 C   0  0  0  0  0  0  0  0  0  0  0  0
    2.1000    5.6544    0.0000 C   0  0  0  0  0  0  0  0  0  0  0  0
    0.7000    5.6544    0.0000 N   0  0  0  0  0  0  0  0  0  0  0  0
    5.6000    2.1000    0.0000 C   0  0  0  0  0  0  0  0  0  0  0  0
  1  2  1  0  0  0  0 
  1  3  2  0  0  0  0 
  1  4  1  0  0  0  0 
  1  5  1  0  0  0  0 
  2  6  1  0  0  0  0 
  2  7  1  0  0  0  0 
  4  8  1  0  0  0  0 
  4  9  2  0  0  0  0 
 10  5  1  0  0  0  0 
 11  5  1  0  0  0  0 
  8 12  2  0  0  0  0 
 13  9  1  0  0  0  0 
 14 10  2  0  0  0  0 
 11 15  2  0  0  0  0 
 12 16  1  0  0  0  0 
 16 13  2  0  0  0  0 
 15 14  1  0  0  0  0 
M  END
> <Name>
Phosphinothioic amide, N,N-dimethyl-P-imidazol-1-yl-P-phenyl-

> <Source>
Name2DMolFile

> <Tox>
2.224

> <CAS>
13568-03-1

$$$$

  CDK

 17 16  0  0  0  0  0  0  0  0999 V2000
    4.6555   -3.9894    0.0000 O   0  0  0  0  0  0  0  0  0  0  0  0
    3.3306   -3.9894    0.0000 P   0  0  0  0  0  0  0  0  0  0  0  0
    3.3306   -5.3216    0.0000 O   0  0  0  0  0  0  0  0  0  0  0  0
    1.9983   -3.9894    0.0000 O   0  0  0  0  0  0  0  0  0  0  0  0
    3.3306   -2.6645    0.0000 O   0  0  0  0  0  0  0  0  0  0  0  0
    4.4798   -5.9877    0.0000 C   0  0  0  0  0  0  0  0  0  0  0  0
    1.3322   -5.1459    0.0000 C   0  0  0  0  0  0  0  0  0  0  0  0
    4.4798   -1.9983    0.0000 C   0  0  0  0  0  0  0  0  0  0  0  0
    5.6290   -5.3216    0.0000 C   0  0  0  0  0  0  0  0  0  0  0  0
    4.4798   -7.3199    0.0000 C   0  0  0  0  0  0  0  0  0  0  0  0
    1.9983   -6.2951    0.0000 C   0  0  0  0  0  0  0  0  0  0  0  0
    0.0000   -5.1459    0.0000 C   0  0  0  0  0  0  0  0  0  0  0  0
    4.4798   -0.6661    0.0000 C   0  0  0  0  0  0  0  0  0  0  0  0
    5.6290   -2.6645    0.0000 C   0  0  0  0  0  0  0  0  0  0  0  0
    5.6290   -3.9894    0.0000 Cl  0  0  0  0  0  0  0  0  0  0  0  0
    3.3306   -6.2951    0.0000 Cl  0  0  0  0  0  0  0  0  0  0  0  0
    3.3306   -0.0000    0.0000 Cl  0  0  0  0  0  0  0  0  0  0  0  0
  1  2  2  0  0  0  0 
  2  3  1  0  0  0  0 
  2  4  1  0  0  0  0 
  2  5  1  0  0  0  0 
  3  6  1  0  0  0  0 
  4  7  1  0  0  0  0 
  5  8  1  0  0  0  0 
  6  9  1  0  0  0  0 
  6 10  1  0  0  0  0 
  7 11  1  0  0  0  0 
  7 12  1  0  0  0  0 
  8 13  1  0  0  0  0 
  8 14  1  0  0  0  0 
  9 15  1  0  0  0  0 
 11 16  1  0  0  0  0 
 13 17  1  0  0  0  0 
M  END
> <Name>
Phosphoric acid, tris(2-chloro-1-methylethyl) ester

> <Source>
DSSTox2DMolFile

> <Tox>
2.339

> <CAS>
13674-84-5

$$$$

  CDK

 10 10  0  0  0  0  0  0  0  0999 V2000
    1.8631    1.0818    0.0022 C   0  0  0  0  0  0  0  0  0  0  0  0
    0.6396    0.3494    0.0022 C   0  0  0  0  0  0  0  0  0  0  0  0
    2.8492    1.6929    0.0012 N   0  0  0  0  0  0  0  0  0  0  0  0
    0.6419   -1.0532    0.0017 C   0  0  0  0  0  0  0  0  0  0  0  0
   -0.5620    1.0636    0.0038 C   0  0  0  0  0  0  0  0  0  0  0  0
   -0.5842   -1.7222    0.0056 C   0  0  0  0  0  0  0  0  0  0  0  0
    1.9096   -1.8270   -0.0102 C   0  0  0  0  0  0  0  0  0  0  0  0
   -1.7768    0.3807    0.0043 C   0  0  0  0  0  0  0  0  0  0  0  0
   -1.7793   -1.0160    0.0070 C   0  0  0  0  0  0  0  0  0  0  0  0
   -3.0587    1.1311   -0.0101 C   0  0  0  0  0  0  0  0  0  0  0  0
  1  2  1  0  0  0  0 
  1  3  3  0  0  0  0 
  2  4  1  0  0  0  0 
  2  5  2  0  0  0  0 
  4  6  2  0  0  0  0 
  4  7  1  0  0  0  0 
  8  5  1  0  0  0  0 
  6  9  1  0  0  0  0 
  9  8  2  0  0  0  0 
  8 10  1  0  0  0  0 
M  END
> <Name>
Benzonitrile, 2,5-dimethyl-

> <Source>
DougDB3DMolFile

> <Tox>
1.641

> <CAS>
13730-09-1

$$$$

  CDK

 15 16  0  0  0  0  0  0  0  0999 V2000
    6.9133   -1.9845    0.0000 C   0  0  0  0  0  0  0  0  0  0  0  0
    6.9133   -3.3155    0.0000 C   0  0  0  0  0  0  0  0  0  0  0  0
    5.7597   -1.3310    0.0000 C   0  0  0  0  0  0  0  0  0  0  0  0
    8.0669   -1.3310    0.0000 C   0  0  0  0  0  0  0  0  0  0  0  0
    5.7597   -3.9931    0.0000 C   0  0  0  0  0  0  0  0  0  0  0  0
    4.6062   -1.9845    0.0000 C   0  0  0  0  0  0  0  0  0  0  0  0
    8.0669   -0.0000    0.0000 O   0  0  0  0  0  0  0  0  0  0  0  0
    4.6062   -3.3155    0.0000 C   0  0  0  0  0  0  0  0  0  0  0  0
    3.4446   -1.3310    0.0000 O   0  0  0  0  0  0  0  0  0  0  0  0
    2.3071   -1.9845    0.0000 C   0  0  0  0  0  0  0  0  0  0  0  0
    2.3071   -3.3155    0.0000 C   0  0  0  0  0  0  0  0  0  0  0  0
    1.1536   -1.3310    0.0000 C   0  0  0  0  0  0  0  0  0  0  0  0
    1.1536   -3.9931    0.0000 C   0  0  0  0  0  0  0  0  0  0  0  0
    0.0000   -1.9845    0.0000 C   0  0  0  0  0  0  0  0  0  0  0  0
    0.0000   -3.3155    0.0000 C   0  0  0  0  0  0  0  0  0  0  0  0
  1  2  2  0  0  0  0 
  1  3  1  0  0  0  0 
  1  4  1  0  0  0  0 
  2  5  1  0  0  0  0 
  6  3  2  0  0  0  0 
  4  7  1  0  0  0  0 
  5  8  2  0  0  0  0 
  8  6  1  0  0  0  0 
  6  9  1  0  0  0  0 
  9 10  1  0  0  0  0 
 10 11  2  0  0  0  0 
 10 12  1  0  0  0  0 
 11 13  1  0  0  0  0 
 12 14  2  0  0  0  0 
 13 15  2  0  0  0  0 
 14 15  1  0  0  0  0 
M  END
> <Name>
Benzenemethanol, 3-phenoxy-

> <Source>
DSSTox2DMolFile

> <Tox>
2.127

> <CAS>
13826-35-2

$$$$

  CDK

 17 17  0  0  0  0  0  0  0  0999 V2000
    0.9370   -2.5936    0.0000 N   0  0  0  0  0  0  0  0  0  0  0  0
    0.2225   -2.1811    0.0000 C   0  0  0  0  0  0  0  0  0  0  0  0
   -0.4920   -2.5936    0.0000 O   0  0  0  0  0  0  0  0  0  0  0  0
    0.2225   -1.3561    0.0000 N   0  0  0  0  0  0  0  0  0  0  0  0
   -0.4920   -0.9436    0.0000 C   0  0  0  0  0  0  0  0  0  0  0  0
   -1.2065   -1.3561    0.0000 O   0  0  0  0  0  0  0  0  0  0  0  0
   -0.4920   -0.1186    0.0000 C   0  0  0  0  0  0  0  0  0  0  0  0
   -0.4920    0.7064    0.0000 C   0  0  0  0  0  0  0  0  0  0  0  0
    0.3330   -0.1186    0.0000 O   0  0  0  0  0  0  0  0  0  0  0  0
    0.2225    1.1189    0.0000 C   0  0  0  0  0  0  0  0  0  0  0  0
   -1.2065    1.1189    0.0000 C   0  0  0  0  0  0  0  0  0  0  0  0
    0.7455   -0.8331    0.0000 C   0  0  0  0  0  0  0  0  0  0  0  0
    0.2225    1.9439    0.0000 C   0  0  0  0  0  0  0  0  0  0  0  0
   -1.2065    1.9439    0.0000 C   0  0  0  0  0  0  0  0  0  0  0  0
   -0.0795   -0.8331    0.0000 O   0  0  0  0  0  0  0  0  0  0  0  0
    0.7455   -0.0081    0.0000 C   0  0  0  0  0  0  0  0  0  0  0  0
   -0.4920    2.3564    0.0000 C   0  0  0  0  0  0  0  0  0  0  0  0
  1  2  1  0  0  0  0 
  2  3  2  0  0  0  0 
  2  4  1  0  0  0  0 
  4  5  1  0  0  0  0 
  5  6  2  0  0  0  0 
  5  7  1  0  0  0  0 
  7  8  1  0  0  0  0 
  7  9  1  0  0  0  0 
  8 10  1  0  0  0  0 
  8 11  2  0  0  0  0 
  9 12  1  0  0  0  0 
 10 13  2  0  0  0  0 
 14 11  1  0  0  0  0 
 12 15  2  0  0  0  0 
 12 16  1  0  0  0  0 
 13 17  1  0  0  0  0 
 17 14  2  0  0  0  0 
M  END
> <Name>
Benzeneacetamide, alpha-(acetyloxy)-N-(aminocarbonyl)- (9CI)

> <Source>
Smiles

> <Tox>
2.051

> <CAS>
13838-02-3

$$$$

  CDK

 10  9  0  0  0  0  0  0  0  0999 V2000
    2.7910   -0.1799    0.0000 F   0  0  0  0  0  0  0  0  0  0  0  0
    3.4561   -1.3301    0.0000 C   0  0  0  0  0  0  0  0  0  0  0  0
    4.1211   -2.4857    0.0000 C   0  0  0  0  0  0  0  0  0  0  0  0
    2.3059   -1.9951    0.0000 O   0  0  0  0  0  0  0  0  0  0  0  0
    4.6063   -0.6650    0.0000 F   0  0  0  0  0  0  0  0  0  0  0  0
    3.4561   -3.6359    0.0000 F   0  0  0  0  0  0  0  0  0  0  0  0
    5.4512   -2.4857    0.0000 Cl  0  0  0  0  0  0  0  0  0  0  0  0
    1.1502   -1.3301    0.0000 C   0  0  0  0  0  0  0  0  0  0  0  0
    1.1502   -0.0000    0.0000 F   0  0  0  0  0  0  0  0  0  0  0  0
    0.0000   -1.9951    0.0000 F   0  0  0  0  0  0  0  0  0  0  0  0
  1  2  1  0  0  0  0 
  2  3  1  0  0  0  0 
  2  4  1  0  0  0  0 
  2  5  1  0  0  0  0 
  3  6  1  0  0  0  0 
  3  7  1  0  0  0  0 
  4  8  1  0  0  0  0 
  8  9  1  0  0  0  0 
  8 10  1  0  0  0  0 
M  END
> <Name>
Ethane, 2-chloro-1-(difluoromethoxy)-1,1,2-trifluoro-

> <Source>
DSSTox2DMolFile

> <Tox>
1.349

> <CAS>
13838-16-9

$$$$

  CDK

 10  9  0  0  0  0  0  0  0  0999 V2000
    0.0000    0.9966    0.0000 C   0  0  0  0  0  0  0  0  0  0  0  0
    0.8651    1.4975    0.0000 N   0  0  0  0  0  0  0  0  0  0  0  0
    1.7302    1.0017    0.0000 C   0  0  0  0  0  0  0  0  0  0  0  0
    0.8629    2.4992    0.0000 N   0  0  0  0  0  0  0  0  0  0  0  0
    2.5953    1.5026    0.0000 N   0  0  0  0  0  0  0  0  0  0  0  0
    1.7251    0.0000    0.0000 O   0  0  0  0  0  0  0  0  0  0  0  0
    1.7294    3.0019    0.0000 O   0  0  0  0  0  0  0  0  0  0  0  0
    3.4604    1.0067    0.0000 C   0  0  0  0  0  0  0  0  0  0  0  0
    4.3255    1.5075    0.0000 N   0  0  0  0  0  0  0  0  0  0  0  0
    3.4553    0.0050    0.0000 O   0  0  0  0  0  0  0  0  0  0  0  0
  1  2  1  0  0  0  0 
  2  3  1  0  0  0  0 
  2  4  1  0  0  0  0 
  3  5  1  0  0  0  0 
  3  6  2  0  0  0  0 
  4  7  2  0  0  0  0 
  5  8  1  0  0  0  0 
  8  9  1  0  0  0  0 
  8 10  2  0  0  0  0 
M  END
> <Name>
Imidodicarbonic diamide, N-methyl-N-nitroso- (9CI)

> <Source>
NIST2DMolFile

> <Tox>
2.511

> <CAS>
13860-69-0

$$$$

  CDK

 15 15  0  0  0  0  0  0  0  0999 V2000
    0.0000    0.0000    0.0000 O   0  0  0  0  0  0  0  0  0  0  0  0
   -1.0800    0.2200   -0.4800 C   0  0  0  0  0  0  0  0  0  0  0  0
   -2.1000    0.7000    0.3000 N   0  0  0  0  0  0  0  0  0  0  0  0
   -1.3200    0.0200   -1.8200 N   0  0  0  0  0  0  0  0  0  0  0  0
   -1.8400    0.9400    1.7400 C   0  0  0  0  0  0  0  0  0  0  0  0
   -2.7000   -0.0200   -2.3200 C   0  0  0  0  0  0  0  0  0  0  0  0
   -0.3800   -0.1600   -2.5600 N   0  0  0  0  0  0  0  0  0  0  0  0
   -3.1600    0.8600    2.5400 C   0  0  0  0  0  0  0  0  0  0  0  0
   -1.1400    2.2800    1.9800 C   0  0  0  0  0  0  0  0  0  0  0  0
   -3.1400    1.3800   -2.7600 C   0  0  0  0  0  0  0  0  0  0  0  0
    0.8200   -0.1000   -2.1400 O   0  0  0  0  0  0  0  0  0  0  0  0
   -4.0800    2.0600    2.3000 C   0  0  0  0  0  0  0  0  0  0  0  0
   -2.0600    3.5000    1.7200 C   0  0  0  0  0  0  0  0  0  0  0  0
   -2.4600    1.7600   -3.8600 F   0  0  0  0  0  0  0  0  0  0  0  0
   -3.3600    3.4000    2.5200 C   0  0  0  0  0  0  0  0  0  0  0  0
  1  2  2  0  0  0  0 
  2  3  1  0  0  0  0 
  2  4  1  0  0  0  0 
  3  5  1  0  0  0  0 
  6  4  1  0  0  0  0 
  4  7  1  0  0  0  0 
  5  8  1  0  0  0  0 
  5  9  1  0  0  0  0 
 10  6  1  0  0  0  0 
  7 11  2  0  0  0  0 
  8 12  1  0  0  0  0 
 13  9  1  0  0  0  0 
 14 10  1  0  0  0  0 
 12 15  1  0  0  0  0 
 15 13  1  0  0  0  0 
M  END
> <Name>
Urea, N'-cyclohexyl-N-(2-fluoroethyl)-N-nitroso- (9CI)

> <Source>
NIH3DMolFile

> <Tox>
4.070

> <CAS>
13908-93-5

$$$$

  CDK

 16 17  0  0  0  0  0  0  0  0999 V2000
    0.0000    0.0000    0.0000 O   0  0  0  0  0  0  0  0  0  0  0  0
   -0.8600   -0.5800   -0.6400 C   0  0  0  0  0  0  0  0  0  0  0  0
   -0.8600   -1.9400   -0.7000 N   0  0  0  0  0  0  0  0  0  0  0  0
   -1.8000    0.1400   -1.3200 N   0  0  0  0  0  0  0  0  0  0  0  0
    0.1600   -2.7000    0.0400 C   0  0  0  0  0  0  0  0  0  0  0  0
   -2.6800   -0.5400   -2.2800 C   0  0  0  0  0  0  0  0  0  0  0  0
   -1.9200    1.3400   -1.1400 N   0  0  0  0  0  0  0  0  0  0  0  0
    0.0400   -2.5600    1.5600 C   0  0  0  0  0  0  0  0  0  0  0  0
    0.0200   -4.2200   -0.1400 C   0  0  0  0  0  0  0  0  0  0  0  0
   -3.9800   -1.0000   -1.6000 C   0  0  0  0  0  0  0  0  0  0  0  0
   -2.7000    2.0200   -1.8600 O   0  0  0  0  0  0  0  0  0  0  0  0
   -0.9400   -3.6400    1.9400 C   0  0  0  0  0  0  0  0  0  0  0  0
    1.3400   -3.0600    2.2200 C   0  0  0  0  0  0  0  0  0  0  0  0
   -0.1000   -4.7200    1.3000 C   0  0  0  0  0  0  0  0  0  0  0  0
   -5.3800   -0.2600   -2.4200 Cl  0  0  0  0  0  0  0  0  0  0  0  0
    1.2400   -4.5800    2.0200 C   0  0  0  0  0  0  0  0  0  0  0  0
  1  2  2  0  0  0  0 
  2  3  1  0  0  0  0 
  2  4  1  0  0  0  0 
  3  5  1  0  0  0  0 
  4  6  1  0  0  0  0 
  4  7  1  0  0  0  0 
  5  8  1  0  0  0  0 
  5  9  1  0  0  0  0 
  6 10  1  0  0  0  0 
  7 11  2  0  0  0  0 
  8 12  1  0  0  0  0 
  8 13  1  0  0  0  0 
 14  9  1  0  0  0  0 
 10 15  1  0  0  0  0 
 12 14  1  0  0  0  0 
 16 13  1  0  0  0  0 
 14 16  1  0  0  0  0 
M  END
> <Name>
Urea, N'-bicyclo(2.2.1)hept-2-yl-N-(2-chloroethyl)-N-nitroso- (9CI)

> <Source>
NIH3DMolFile

> <Tox>
3.471

> <CAS>
13909-13-2

$$$$

  CDK

 20 21  0  0  0  0  0  0  0  0999 V2000
    4.5312    1.6673   -3.5044 O   0  0  0  0  0  0  0  0  0  0  0  0
    3.3431    1.6411   -4.3074 C   0  0  0  0  0  0  0  0  0  0  0  0
    4.6835    0.5202   -2.7711 C   0  0  0  0  0  0  0  0  0  0  0  0
    3.4254    2.7963   -5.2944 C   0  0  0  0  0  0  0  0  0  0  0  0
    3.2391    0.3032   -5.0275 C   0  0  0  0  0  0  0  0  0  0  0  0
    3.9745   -0.6518   -3.0432 C   0  0  0  0  0  0  0  0  0  0  0  0
    5.6012    0.5541   -1.7208 C   0  0  0  0  0  0  0  0  0  0  0  0
    2.2743    2.7658   -6.1366 O   0  0  0  0  0  0  0  0  0  0  0  0
    3.4589    4.1399   -4.5777 C   0  0  0  0  0  0  0  0  0  0  0  0
    3.0850   -0.7579   -4.0796 O   0  0  0  0  0  0  0  0  0  0  0  0
    4.1501   -1.7775   -2.2379 C   0  0  0  0  0  0  0  0  0  0  0  0
    5.7863   -0.5762   -0.9244 C   0  0  0  0  0  0  0  0  0  0  0  0
    3.5068    5.1802   -5.5484 O   0  0  0  0  0  0  0  0  0  0  0  0
    5.0578   -1.7386   -1.1792 C   0  0  0  0  0  0  0  0  0  0  0  0
    3.5415    6.4603   -5.0610 C   0  0  0  0  0  0  0  0  0  0  0  0
    3.5338    6.7456   -3.8680 O   0  0  0  0  0  0  0  0  0  0  0  0
    3.5858    7.3611   -6.1042 N   0  0  0  0  0  0  0  0  0  0  0  0
    3.6299    8.7940   -5.9252 C   0  0  0  0  0  0  0  0  0  0  0  0
    5.0545    9.2317   -5.8446 C   0  0  0  0  0  0  0  0  0  0  0  0
    5.5766    9.8826   -4.7989 C   0  0  0  0  0  0  0  0  0  0  0  0
  1  2  1  0  0  0  0 
  1  3  1  0  0  0  0 
  2  4  1  0  0  0  0 
  2  5  1  0  0  0  0 
  3  6  1  0  0  0  0 
  3  7  2  0  0  0  0 
  8  4  1  0  0  0  0 
  4  9  1  0  0  0  0 
 10  5  1  0  0  0  0 
 10  6  1  0  0  0  0 
  6 11  2  0  0  0  0 
  7 12  1  0  0  0  0 
 13  9  1  0  0  0  0 
 11 14  1  0  0  0  0 
 12 14  2  0  0  0  0 
 13 15  1  0  0  0  0 
 16 15  2  0  0  0  0 
 17 15  1  0  0  0  0 
 17 18  1  0  0  0  0 
 18 19  1  0  0  0  0 
 19 20  2  0  0  0  0 
M  END
> <Name>
1,2-Ethanediol, 1-(1,4-benzodioxan-2-yl)-, 2-(allylcarbamate)

> <Source>
Chemidplus3DMolFile

> <Tox>
2.270

> <CAS>
13973-71-2

$$$$

  CDK

 19 21  0  0  0  0  0  0  0  0999 V2000
   10.3591   -1.9993    0.0000 C   0  0  0  0  0  0  0  0  0  0  0  0
   10.3591   -3.3253    0.0000 C   0  0  0  0  0  0  0  0  0  0  0  0
    9.2092   -1.3260    0.0000 C   0  0  0  0  0  0  0  0  0  0  0  0
    9.2092   -3.9882    0.0000 C   0  0  0  0  0  0  0  0  0  0  0  0
    8.0594   -1.9993    0.0000 C   0  0  0  0  0  0  0  0  0  0  0  0
    8.0594   -3.3253    0.0000 C   0  0  0  0  0  0  0  0  0  0  0  0
    6.9095   -1.3260    0.0000 N   0  0  0  0  0  0  0  0  0  0  0  0
    6.9095   -3.9882    0.0000 S   0  0  0  0  0  0  0  0  0  0  0  0
    6.9095   -0.0000    0.0000 C   0  0  0  0  0  0  0  0  0  0  0  0
    5.7596   -1.9993    0.0000 C   0  0  0  0  0  0  0  0  0  0  0  0
    5.7596   -3.3253    0.0000 C   0  0  0  0  0  0  0  0  0  0  0  0
    4.5994   -1.3260    0.0000 C   0  0  0  0  0  0  0  0  0  0  0  0
    4.5994   -3.9882    0.0000 C   0  0  0  0  0  0  0  0  0  0  0  0
    3.4496   -1.9993    0.0000 C   0  0  0  0  0  0  0  0  0  0  0  0
    3.4496   -3.3253    0.0000 C   0  0  0  0  0  0  0  0  0  0  0  0
    2.2997   -1.3260    0.0000 C   0  0  0  0  0  0  0  0  0  0  0  0
    1.1499   -1.9993    0.0000 C   0  0  0  0  0  0  0  0  0  0  0  0
    0.0000   -1.3260    0.0000 O   0  0  0  0  0  0  0  0  0  0  0  0
    1.1499   -3.3253    0.0000 O   0  0  0  0  0  0  0  0  0  0  0  0
  1  2  2  0  0  0  0 
  1  3  1  0  0  0  0 
  2  4  1  0  0  0  0 
  5  3  2  0  0  0  0 
  4  6  2  0  0  0  0 
  6  5  1  0  0  0  0 
  5  7  1  0  0  0  0 
  6  8  1  0  0  0  0 
  7  9  1  0  0  0  0 
  7 10  1  0  0  0  0 
 11  8  1  0  0  0  0 
 10 11  2  0  0  0  0 
 10 12  1  0  0  0  0 
 11 13  1  0  0  0  0 
 14 12  2  0  0  0  0 
 13 15  2  0  0  0  0 
 15 14  1  0  0  0  0 
 14 16  1  0  0  0  0 
 16 17  1  0  0  0  0 
 17 18  1  0  0  0  0 
 17 19  2  0  0  0  0 
M  END
> <Name>
Phenothiazine-2-acetic acid, 10-methyl-

> <Source>
DSSTox2DMolFile

> <Tox>
2.739

> <CAS>
13993-65-2

$$$$

  CDK

 19 20  0  0  0  0  0  0  0  0999 V2000
    0.5895   -0.6286    0.1417 S   0  0  0  0  0  0  0  0  0  0  0  0
   -0.1319    0.7384    0.7783 C   0  0  0  0  0  0  0  0  0  0  0  0
   -1.2508    0.6592    1.5554 N   0  0  0  0  0  0  0  0  0  0  0  0
    0.3746    1.9926    0.5443 N   0  0  0  0  0  0  0  0  0  0  0  0
   -2.2934   -0.3421    1.3241 C   0  0  0  0  0  0  0  0  0  0  0  0
   -1.5393    1.6320    2.6104 C   0  0  0  0  0  0  0  0  0  0  0  0
    1.4821    2.1656   -0.2164 N   0  0  0  0  0  0  0  0  0  0  0  0
   -2.5834   -1.1000    2.6182 C   0  0  0  0  0  0  0  0  0  0  0  0
   -1.8163    0.9063    3.9257 C   0  0  0  0  0  0  0  0  0  0  0  0
    1.8408    3.4011   -0.3491 C   0  0  0  0  0  0  0  0  0  0  0  0
   -2.9152   -0.1419    3.7607 C   0  0  0  0  0  0  0  0  0  0  0  0
    3.0205    3.7887   -1.1423 C   0  0  0  0  0  0  0  0  0  0  0  0
    3.2830    5.0973   -1.2020 O   0  0  0  0  0  0  0  0  0  0  0  0
    3.8874    3.0241   -1.8253 C   0  0  0  0  0  0  0  0  0  0  0  0
    4.3957    5.1911   -1.9762 C   0  0  0  0  0  0  0  0  0  0  0  0
    4.8066    3.9435   -2.3846 C   0  0  0  0  0  0  0  0  0  0  0  0
    4.8735    6.4857   -2.1880 N   0  0  0  0  0  0  0  0  0  0  0  0
    5.9070    6.6698   -2.8967 O   0  0  0  0  0  0  0  0  0  0  0  0
    4.2724    7.4735   -1.6714 O   0  0  0  0  0  0  0  0  0  0  0  0
  1  2  2  0  0  0  0 
  3  2  1  0  0  0  0 
  4  2  1  0  0  0  0 
  3  5  1  0  0  0  0 
  3  6  1  0  0  0  0 
  4  7  1  0  0  0  0 
  8  5  1  0  0  0  0 
  9  6  1  0  0  0  0 
  7 10  2  0  0  0  0 
 11  8  1  0  0  0  0 
 11  9  1  0  0  0  0 
 10 12  1  0  0  0  0 
 13 12  1  0  0  0  0 
 12 14  2  0  0  0  0 
 13 15  1  0  0  0  0 
 14 16  1  0  0  0  0 
 17 15  1  0  0  0  0 
 15 16  2  0  0  0  0 
 18 17  1  0  0  0  0 
 19 17  2  0  0  0  0 
M  CHG  1  17   1
M  CHG  1  18  -1
M  END
> <Name>
1-Piperidinecarbothioic acid, (5-nitrofurfurylidene)hydrazide

> <Source>
Chemidplus3DMolFile

> <Tox>
2.576

> <CAS>
14052-74-5

$$$$

  CDK

 16 16  0  0  0  0  0  0  0  0999 V2000
    1.7362    2.1591    0.0364 S   0  0  0  0  0  0  0  0  0  0  0  0
    1.8960    1.2198    1.4376 C   0  0  0  0  0  0  0  0  0  0  0  0
    0.9736    0.2177    1.8310 N   0  0  0  0  0  0  0  0  0  0  0  0
    2.9713    1.3768    2.3161 N   0  0  0  0  0  0  0  0  0  0  0  0
    1.3570   -0.9692    2.5984 C   0  0  0  0  0  0  0  0  0  0  0  0
   -0.4504    0.2874    1.4997 C   0  0  0  0  0  0  0  0  0  0  0  0
    3.9816    2.2455    2.0517 N   0  0  0  0  0  0  0  0  0  0  0  0
    4.9363    2.2291    2.9254 C   0  0  0  0  0  0  0  0  0  0  0  0
    6.1003    3.0909    2.8051 C   0  0  0  0  0  0  0  0  0  0  0  0
    7.0312    2.9915    3.7709 O   0  0  0  0  0  0  0  0  0  0  0  0
    6.4239    4.0073    1.8601 C   0  0  0  0  0  0  0  0  0  0  0  0
    7.9993    3.8837    3.4348 C   0  0  0  0  0  0  0  0  0  0  0  0
    7.6728    4.5339    2.2675 C   0  0  0  0  0  0  0  0  0  0  0  0
    9.0842    3.9522    4.3109 N   0  0  0  0  0  0  0  0  0  0  0  0
   10.0351    4.7555    4.0774 O   0  0  0  0  0  0  0  0  0  0  0  0
    9.1151    3.2112    5.3376 O   0  0  0  0  0  0  0  0  0  0  0  0
  1  2  2  0  0  0  0 
  3  2  1  0  0  0  0 
  4  2  1  0  0  0  0 
  3  5  1  0  0  0  0 
  3  6  1  0  0  0  0 
  4  7  1  0  0  0  0 
  7  8  2  0  0  0  0 
  9  8  1  0  0  0  0 
 10  9  1  0  0  0  0 
  9 11  2  0  0  0  0 
 10 12  1  0  0  0  0 
 11 13  1  0  0  0  0 
 14 12  1  0  0  0  0 
 12 13  2  0  0  0  0 
 15 14  1  0  0  0  0 
 16 14  2  0  0  0  0 
M  CHG  1  14   1
M  CHG  1  15  -1
M  END
> <Name>
2-Furaldehyde, 5-nitro-, 4,4-dimethyl-3-thiosemicarbazone

> <Source>
Chemidplus3DMolFile

> <Tox>
2.509

> <CAS>
14052-79-0

$$$$

  CDK

 26 28  0  0  0  0  0  0  0  0999 V2000
    8.0629   -5.9896    0.0000 C   0  0  0  0  0  0  0  0  0  0  0  0
    6.9111   -6.6462    0.0000 C   0  0  0  0  0  0  0  0  0  0  0  0
    8.0629   -4.6535    0.0000 O   0  0  0  0  0  0  0  0  0  0  0  0
    5.7592   -5.9896    0.0000 O   0  0  0  0  0  0  0  0  0  0  0  0
    9.2148   -3.9969    0.0000 C   0  0  0  0  0  0  0  0  0  0  0  0
    4.6074   -6.6462    0.0000 C   0  0  0  0  0  0  0  0  0  0  0  0
    9.2148   -2.6608    0.0000 C   0  0  0  0  0  0  0  0  0  0  0  0
   10.3666   -4.6535    0.0000 C   0  0  0  0  0  0  0  0  0  0  0  0
    3.4555   -5.9896    0.0000 C   0  0  0  0  0  0  0  0  0  0  0  0
    8.0629   -1.9927    0.0000 O   0  0  0  0  0  0  0  0  0  0  0  0
   10.3666   -1.9927    0.0000 C   0  0  0  0  0  0  0  0  0  0  0  0
   11.5185   -3.9969    0.0000 C   0  0  0  0  0  0  0  0  0  0  0  0
    3.4555   -4.6535    0.0000 O   0  0  0  0  0  0  0  0  0  0  0  0
    8.0629   -0.6681    0.0000 C   0  0  0  0  0  0  0  0  0  0  0  0
   11.5185   -2.6608    0.0000 C   0  0  0  0  0  0  0  0  0  0  0  0
    2.3037   -3.9969    0.0000 C   0  0  0  0  0  0  0  0  0  0  0  0
    6.9111   -0.0000    0.0000 C   0  0  0  0  0  0  0  0  0  0  0  0
    2.3037   -2.6608    0.0000 C   0  0  0  0  0  0  0  0  0  0  0  0
    1.1518   -4.6535    0.0000 C   0  0  0  0  0  0  0  0  0  0  0  0
    5.7592   -0.6681    0.0000 O   0  0  0  0  0  0  0  0  0  0  0  0
    3.4555   -1.9927    0.0000 O   0  0  0  0  0  0  0  0  0  0  0  0
    1.1518   -1.9927    0.0000 C   0  0  0  0  0  0  0  0  0  0  0  0
    0.0000   -3.9969    0.0000 C   0  0  0  0  0  0  0  0  0  0  0  0
    4.6074   -0.0000    0.0000 C   0  0  0  0  0  0  0  0  0  0  0  0
    3.4555   -0.6681    0.0000 C   0  0  0  0  0  0  0  0  0  0  0  0
    0.0000   -2.6608    0.0000 C   0  0  0  0  0  0  0  0  0  0  0  0
  1  2  1  0  0  0  0 
  1  3  1  0  0  0  0 
  2  4  1  0  0  0  0 
  5  3  1  0  0  0  0 
  4  6  1  0  0  0  0 
  7  5  1  0  0  0  0 
  5  8  2  0  0  0  0 
  6  9  1  0  0  0  0 
 10  7  1  0  0  0  0 
  7 11  2  0  0  0  0 
 12  8  1  0  0  0  0 
  9 13  1  0  0  0  0 
 14 10  1  0  0  0  0 
 15 11  1  0  0  0  0 
 12 15  2  0  0  0  0 
 13 16  1  0  0  0  0 
 17 14  1  0  0  0  0 
 16 18  2  0  0  0  0 
 16 19  1  0  0  0  0 
 20 17  1  0  0  0  0 
 18 21  1  0  0  0  0 
 18 22  1  0  0  0  0 
 19 23  2  0  0  0  0 
 24 20  1  0  0  0  0 
 21 25  1  0  0  0  0 
 22 26  2  0  0  0  0 
 26 23  1  0  0  0  0 
 25 24  1  0  0  0  0 
M  END
> <Name>
Dibenzo(b,k)(1,4,7,10,13,16)hexaoxacyclooctadecin, 6,7,9,10,17,18,20,21-octahydro-

> <Source>
DSSTox2DMolFile

> <Tox>
2.142

> <CAS>
14187-32-7

$$$$

  CDK

 12 12  0  0  0  0  0  0  0  0999 V2000
    1.7620    0.5538    0.0000 C   0  0  0  0  0  0  0  0  0  0  0  0
    1.7620    1.5103    0.0000 C   0  0  0  0  0  0  0  0  0  0  0  0
    0.9062    0.0503    0.0000 N   0  0  0  0  0  0  0  0  0  0  0  0
    2.6179    0.0503    0.0000 C   0  0  0  0  0  0  0  0  0  0  0  0
    0.9062    2.0137    0.0000 C   0  0  0  0  0  0  0  0  0  0  0  0
    0.0000    0.5538    0.0000 C   0  0  0  0  0  0  0  0  0  0  0  0
    3.4737    0.5538    0.0000 C   0  0  0  0  0  0  0  0  0  0  0  0
    0.0000    1.5103    0.0000 C   0  0  0  0  0  0  0  0  0  0  0  0
    0.9062    3.0206    0.0000 C   0  0  0  0  0  0  0  0  0  0  0  0
    4.3799    0.0000    0.0000 C   0  0  0  0  0  0  0  0  0  0  0  0
    0.0503    3.3730    0.0000 N   0  0  0  0  0  0  0  0  0  0  0  0
    1.7620    3.6247    0.0000 S   0  0  0  0  0  0  0  0  0  0  0  0
  2  1  2  0  0  0  0 
  1  3  1  0  0  0  0 
  1  4  1  0  0  0  0 
  5  2  1  0  0  0  0 
  3  6  2  0  0  0  0 
  4  7  1  0  0  0  0 
  8  5  2  0  0  0  0 
  5  9  1  0  0  0  0 
  6  8  1  0  0  0  0 
 10  7  1  0  0  0  0 
  9 11  1  0  0  0  0 
  9 12  2  0  0  0  0 
M  END
> <Name>
4-Pyridinecarbothioamide, 2-propyl- (9CI)

> <Source>
NIST2DMolFile

> <Tox>
2.135

> <CAS>
14222-60-7

$$$$

  CDK

 24 24  0  0  0  0  0  0  0  0999 V2000
   -2.3756   -2.9710    0.0000 C   0  0  0  0  0  0  0  0  0  0  0  0
   -1.6390   -2.5633    0.0000 C   0  0  0  0  0  0  0  0  0  0  0  0
   -0.8473   -2.2640    0.0000 C   0  0  0  0  0  0  0  0  0  0  0  0
   -0.0580   -1.9556    0.0000 C   0  0  0  0  0  0  0  0  0  0  0  0
    0.5796   -1.4024    0.0000 S   0  0  0  0  0  0  0  0  0  0  0  0
    0.9102   -0.6289    0.0000 C   0  0  0  0  0  0  0  0  0  0  0  0
    0.1735   -0.2334    0.0000 O   0  0  0  0  0  0  0  0  0  0  0  0
    1.4952   -0.0036    0.0000 O   0  0  0  0  0  0  0  0  0  0  0  0
    1.3195    0.8751    0.0000 C   0  0  0  0  0  0  0  0  0  0  0  0
    2.0267    1.2954    0.0000 C   0  0  0  0  0  0  0  0  0  0  0  0
    0.5625    1.3029    0.0000 C   0  0  0  0  0  0  0  0  0  0  0  0
    2.6935    0.8030    0.0000 N   0  0  0  0  0  0  0  0  0  0  0  0
    2.0141    2.1092    0.0000 C   0  0  0  0  0  0  0  0  0  0  0  0
    0.5812    2.1095    0.0000 C   0  0  0  0  0  0  0  0  0  0  0  0
   -0.2722    1.0491    0.0000 C   0  0  0  0  0  0  0  0  0  0  0  0
    2.7193   -0.0163    0.0000 O   0  0  0  0  0  0  0  0  0  0  0  0
    3.4127    1.1989    0.0000 O   0  0  0  0  0  0  0  0  0  0  0  0
    1.2949    2.5198    0.0000 C   0  0  0  0  0  0  0  0  0  0  0  0
   -0.9832    0.5770    0.0000 C   0  0  0  0  0  0  0  0  0  0  0  0
    0.4894    0.7759    0.0000 C   0  0  0  0  0  0  0  0  0  0  0  0
    1.2782    3.3374    0.0000 N   0  0  0  0  0  0  0  0  0  0  0  0
   -1.7182    0.1431    0.0000 C   0  0  0  0  0  0  0  0  0  0  0  0
    0.5417    3.6993    0.0000 O   0  0  0  0  0  0  0  0  0  0  0  0
    2.0192    3.6911    0.0000 O   0  0  0  0  0  0  0  0  0  0  0  0
  1  2  1  0  0  0  0 
  2  3  1  0  0  0  0 
  3  4  1  0  0  0  0 
  4  5  1  0  0  0  0 
  5  6  1  0  0  0  0 
  6  7  2  0  0  0  0 
  6  8  1  0  0  0  0 
  8  9  1  0  0  0  0 
  9 10  1  0  0  0  0 
  9 11  2  0  0  0  0 
 10 12  1  0  0  0  0 
 10 13  2  0  0  0  0 
 14 11  1  0  0  0  0 
 11 15  1  0  0  0  0 
 12 16  2  0  0  0  0 
 12 17  2  0  0  0  0 
 13 18  1  0  0  0  0 
 18 14  2  0  0  0  0 
 15 19  1  0  0  0  0 
 15 20  1  0  0  0  0 
 18 21  1  0  0  0  0 
 19 22  1  0  0  0  0 
 21 23  2  0  0  0  0 
 21 24  2  0  0  0  0 
M  END
> <Name>
Carbonic acid, thio-, S-butyl O-(2-sec-butyl-4,6-dinitrophenyl) ester

> <Source>
Smiles

> <Tox>
3.385

> <CAS>
14355-07-8

$$$$

  CDK

 24 24  0  0  0  0  0  0  0  0999 V2000
    4.8497    1.7249    0.0000 C   0  0  0  0  0  0  0  0  0  0  0  0
    3.6373    2.4249    0.0000 C   0  0  0  0  0  0  0  0  0  0  0  0
    4.8497    0.3249    0.0000 O   0  0  0  0  0  0  0  0  0  0  0  0
    6.0622    2.4249    0.0000 O   0  0  0  0  0  0  0  0  0  0  0  0
    4.3373    3.6373    0.0000 C   0  0  0  0  0  0  0  0  0  0  0  0
    2.4249    3.1249    0.0000 C   0  0  0  0  0  0  0  0  0  0  0  0
    2.9373    1.2124    0.0000 C   0  0  0  0  0  0  0  0  0  0  0  0
    7.2746    1.7249    0.0000 C   0  0  0  0  0  0  0  0  0  0  0  0
    5.7373    3.6373    0.0000 O   0  0  0  0  0  0  0  0  0  0  0  0
    3.6373    4.8497    0.0000 O   0  0  0  0  0  0  0  0  0  0  0  0
    1.2124    2.4249    0.0000 C   0  0  0  0  0  0  0  0  0  0  0  0
    2.4249    4.5249    0.0000 C   0  0  0  0  0  0  0  0  0  0  0  0
    3.6373    0.0000    0.0000 C   0  0  0  0  0  0  0  0  0  0  0  0
    8.4871    2.4249    0.0000 C   0  0  0  0  0  0  0  0  0  0  0  0
    4.3373    6.0622    0.0000 C   0  0  0  0  0  0  0  0  0  0  0  0
    0.0000    3.1249    0.0000 C   0  0  0  0  0  0  0  0  0  0  0  0
    1.2124    5.2249    0.0000 C   0  0  0  0  0  0  0  0  0  0  0  0
    3.6373    7.2746    0.0000 C   0  0  0  0  0  0  0  0  0  0  0  0
    0.0000    4.5249    0.0000 C   0  0  0  0  0  0  0  0  0  0  0  0
    4.3373    8.4871    0.0000 N   0  0  0  0  0  0  0  0  0  0  0  0
    3.6373    9.6995    0.0000 C   0  0  0  0  0  0  0  0  0  0  0  0
    5.7373    8.4871    0.0000 C   0  0  0  0  0  0  0  0  0  0  0  0
    2.2373    9.6995    0.0000 C   0  0  0  0  0  0  0  0  0  0  0  0
    6.4373    9.6995    0.0000 C   0  0  0  0  0  0  0  0  0  0  0  0
  1  2  1  0  0  0  0 
  1  3  2  0  0  0  0 
  1  4  1  0  0  0  0 
  2  5  1  0  0  0  0 
  2  6  1  0  0  0  0 
  2  7  1  0  0  0  0 
  4  8  1  0  0  0  0 
  5  9  2  0  0  0  0 
  5 10  1  0  0  0  0 
  6 11  1  0  0  0  0 
  6 12  2  0  0  0  0 
  7 13  1  0  0  0  0 
  8 14  1  0  0  0  0 
 10 15  1  0  0  0  0 
 11 16  2  0  0  0  0 
 17 12  1  0  0  0  0 
 15 18  1  0  0  0  0 
 16 19  1  0  0  0  0 
 19 17  2  0  0  0  0 
 18 20  1  0  0  0  0 
 20 21  1  0  0  0  0 
 20 22  1  0  0  0  0 
 21 23  1  0  0  0  0 
 22 24  1  0  0  0  0 
M  END
> <Name>
Propanedioic acid, ethylphenyl-, 2-(diethylamino)ethyl ethyl ester (9CI)

> <Source>
Name2DMolFile

> <Tox>
1.957

> <CAS>
14436-50-1

$$$$

  CDK

 14 14  0  0  0  0  0  0  0  0999 V2000
   -0.6166   -0.2175    0.6427 C   0  0  0  0  0  0  0  0  0  0  0  0
   -1.2592   -1.4173    0.3319 C   0  0  0  0  0  0  0  0  0  0  0  0
   -1.3345    0.9802    0.6222 C   0  0  0  0  0  0  0  0  0  0  0  0
    0.8319   -0.2150    1.0104 C   0  0  0  0  0  0  0  0  0  0  0  0
   -2.6100   -1.4231    0.0055 C   0  0  0  0  0  0  0  0  0  0  0  0
   -2.6849    0.9812    0.2966 C   0  0  0  0  0  0  0  0  0  0  0  0
    1.7065    0.1203   -0.1903 C   0  0  0  0  0  0  0  0  0  0  0  0
   -3.3155   -0.2226   -0.0091 C   0  0  0  0  0  0  0  0  0  0  0  0
    3.1639   -0.1809    0.1049 C   0  0  0  0  0  0  0  0  0  0  0  0
    1.5927    1.8676   -0.5379 Cl  0  0  0  0  0  0  0  0  0  0  0  0
   -4.9539   -0.2265   -0.4022 Cl  0  0  0  0  0  0  0  0  0  0  0  0
    3.8799    0.3530    0.9254 O   0  0  0  0  0  0  0  0  0  0  0  0
    3.6636   -1.1809   -0.6812 O   0  0  0  0  0  0  0  0  0  0  0  0
    5.0154   -1.5570   -0.5218 C   0  0  0  0  0  0  0  0  0  0  0  0
  1  2  1  0  0  0  0 
  1  3  2  0  0  0  0 
  1  4  1  0  0  0  0 
  2  5  2  0  0  0  0 
  6  3  1  0  0  0  0 
  7  4  1  0  0  0  0 
  5  8  1  0  0  0  0 
  8  6  2  0  0  0  0 
  9  7  1  0  0  0  0 
  7 10  1  0  0  0  0 
  8 11  1  0  0  0  0 
  9 12  2  0  0  0  0 
  9 13  1  0  0  0  0 
 13 14  1  0  0  0  0 
M  END
> <Name>
Propionic acid, 2-chloro-3-(4-chlorophenyl)-, methyl ester

> <Source>
DougDB3DMolFile

> <Tox>
2.337

> <CAS>
14437-17-3

$$$$

  CDK

 26 27  0  0  0  0  0  0  0  0999 V2000
   -2.3372    1.3531    0.0000 C   0  0  0  0  0  0  0  0  0  0  0  0
   -3.0458    1.7686    0.0000 O   0  0  0  0  0  0  0  0  0  0  0  0
   -2.3372    0.5204    0.0000 C   0  0  0  0  0  0  0  0  0  0  0  0
   -1.6456    1.7747    0.0000 C   0  0  0  0  0  0  0  0  0  0  0  0
   -3.7520    1.3515    0.0000 C   0  0  0  0  0  0  0  0  0  0  0  0
   -3.0536    0.1143    0.0000 C   0  0  0  0  0  0  0  0  0  0  0  0
   -1.6051    0.1272    0.0000 C   0  0  0  0  0  0  0  0  0  0  0  0
   -0.9221    1.3796    0.0000 C   0  0  0  0  0  0  0  0  0  0  0  0
   -4.4330    1.7924    0.0000 O   0  0  0  0  0  0  0  0  0  0  0  0
   -3.7588    0.5318    0.0000 C   0  0  0  0  0  0  0  0  0  0  0  0
   -3.1065   -0.7356    0.0000 C   0  0  0  0  0  0  0  0  0  0  0  0
   -0.9104    0.5570    0.0000 C   0  0  0  0  0  0  0  0  0  0  0  0
   -0.2457    1.7904    0.0000 O   0  0  0  0  0  0  0  0  0  0  0  0
   -4.5110    0.2169    0.0000 Cl  0  0  0  0  0  0  0  0  0  0  0  0
    0.5038    1.4581    0.0000 P   0  0  0  0  0  0  0  0  0  0  0  0
    1.0159    2.1142    0.0000 O   0  0  0  0  0  0  0  0  0  0  0  0
    0.2747    0.6469    0.0000 O   0  0  0  0  0  0  0  0  0  0  0  0
    1.1933    1.0045    0.0000 O   0  0  0  0  0  0  0  0  0  0  0  0
    0.5326   -0.2068    0.0000 C   0  0  0  0  0  0  0  0  0  0  0  0
    1.0571    0.1674    0.0000 C   0  0  0  0  0  0  0  0  0  0  0  0
    0.7688   -1.0391    0.0000 C   0  0  0  0  0  0  0  0  0  0  0  0
    1.8522   -0.0860    0.0000 C   0  0  0  0  0  0  0  0  0  0  0  0
    1.3178   -1.6935    0.0000 C   0  0  0  0  0  0  0  0  0  0  0  0
    2.5601    0.3600    0.0000 C   0  0  0  0  0  0  0  0  0  0  0  0
    1.8083   -2.3770    0.0000 C   0  0  0  0  0  0  0  0  0  0  0  0
    3.3799    0.4463    0.0000 C   0  0  0  0  0  0  0  0  0  0  0  0
  1  2  1  0  0  0  0 
  1  3  1  0  0  0  0 
  1  4  2  0  0  0  0 
  2  5  1  0  0  0  0 
  6  3  1  0  0  0  0 
  3  7  2  0  0  0  0 
  8  4  1  0  0  0  0 
  5  9  2  0  0  0  0 
  5 10  1  0  0  0  0 
 10  6  2  0  0  0  0 
  6 11  1  0  0  0  0 
  7 12  1  0  0  0  0 
 12  8  2  0  0  0  0 
  8 13  1  0  0  0  0 
 10 14  1  0  0  0  0 
 13 15  1  0  0  0  0 
 15 16  2  0  0  0  0 
 15 17  1  0  0  0  0 
 15 18  1  0  0  0  0 
 17 19  1  0  0  0  0 
 18 20  1  0  0  0  0 
 19 21  1  0  0  0  0 
 20 22  1  0  0  0  0 
 21 23  1  0  0  0  0 
 22 24  1  0  0  0  0 
 23 25  1  0  0  0  0 
 24 26  1  0  0  0  0 
M  END
> <Name>
Coumarin, 3-chloro-7-hydroxy-4-methyl-, dibutyl phosphate

> <Source>
Smiles

> <Tox>
3.806

> <CAS>
14663-66-2

$$$$

  CDK

 17 18  0  0  0  0  0  0  0  0999 V2000
   -1.6675   -0.3294    2.5446 Br  0  0  0  0  0  0  0  0  0  0  0  0
    0.1486   -0.5928    2.0629 C   0  0  0  0  0  0  0  0  0  0  0  0
    1.0472   -1.0509    3.0269 C   0  0  0  0  0  0  0  0  0  0  0  0
    0.6634   -0.3580    0.7837 C   0  0  0  0  0  0  0  0  0  0  0  0
    0.8939   -1.3767    4.3501 N   0  0  0  0  0  0  0  0  0  0  0  0
    2.3966   -1.2756    2.7693 C   0  0  0  0  0  0  0  0  0  0  0  0
   -0.4166    0.2177   -0.4597 Cl  0  0  0  0  0  0  0  0  0  0  0  0
    2.0128   -0.5742    0.4946 C   0  0  0  0  0  0  0  0  0  0  0  0
    2.1127   -1.7723    4.8265 C   0  0  0  0  0  0  0  0  0  0  0  0
    3.0425   -1.7232    3.8988 N   0  0  0  0  0  0  0  0  0  0  0  0
    2.8968   -1.0344    1.4786 C   0  0  0  0  0  0  0  0  0  0  0  0
    2.7075   -0.2468   -1.2624 Br  0  0  0  0  0  0  0  0  0  0  0  0
    2.2868   -2.1931    6.2289 C   0  0  0  0  0  0  0  0  0  0  0  0
    4.5658   -1.3468    1.2848 Cl  0  0  0  0  0  0  0  0  0  0  0  0
    3.5692   -2.5559    6.5283 F   0  0  0  0  0  0  0  0  0  0  0  0
    1.9641   -1.2188    7.1302 F   0  0  0  0  0  0  0  0  0  0  0  0
    1.5086   -3.2689    6.5442 F   0  0  0  0  0  0  0  0  0  0  0  0
  1  2  1  0  0  0  0 
  3  2  1  0  0  0  0 
  2  4  2  0  0  0  0 
  5  3  1  0  0  0  0 
  3  6  2  0  0  0  0 
  7  4  1  0  0  0  0 
  4  8  1  0  0  0  0 
  5  9  1  0  0  0  0 
 10  6  1  0  0  0  0 
  6 11  1  0  0  0  0 
 12  8  1  0  0  0  0 
 11  8  2  0  0  0  0 
 10  9  2  0  0  0  0 
  9 13  1  0  0  0  0 
 14 11  1  0  0  0  0 
 15 13  1  0  0  0  0 
 16 13  1  0  0  0  0 
 17 13  1  0  0  0  0 
M  END
> <Name>
Benzimidazole, 5,7-dibromo-4,6-dichloro-2-(trifluoromethyl)-

> <Source>
Chemidplus3DMolFile

> <Tox>
5.080

> <CAS>
14689-56-6

$$$$

  CDK

  8  7  0  0  0  0  0  0  0  0999 V2000
   -2.1421   -0.5212   -0.0068 C   0  0  0  0  0  0  0  0  0  0  0  0
   -0.6568   -0.1023   -0.1068 C   0  0  0  0  0  0  0  0  0  0  0  0
   -3.0183    0.4675   -0.4725 O   0  0  0  0  0  0  0  0  0  0  0  0
    0.2377   -1.3444    0.0523 C   0  0  0  0  0  0  0  0  0  0  0  0
   -0.4387    0.8707    0.8926 O   0  0  0  0  0  0  0  0  0  0  0  0
    1.7014   -1.0551    0.3496 C   0  0  0  0  0  0  0  0  0  0  0  0
    2.3462   -0.0461   -0.5993 C   0  0  0  0  0  0  0  0  0  0  0  0
    2.0825    1.2528   -0.1028 O   0  0  0  0  0  0  0  0  0  0  0  0
  1  2  1  0  0  0  0 
  1  3  1  0  0  0  0 
  2  4  1  0  0  0  0 
  2  5  1  0  0  0  0 
  4  6  1  0  0  0  0 
  6  7  1  0  0  0  0 
  7  8  1  0  0  0  0 
M  END
> <Name>
Pentane-1,2,5-triol

> <Source>
DougDB3DMolFile

> <Tox>
1.188

> <CAS>
14697-46-2

$$$$

  CDK

 19 19  0  0  0  0  0  0  0  0999 V2000
   -1.4941   -1.0781    0.0000 Cl  0  0  0  0  0  0  0  0  0  0  0  0
   -1.4961   -0.2044    0.0000 C   0  0  0  0  0  0  0  0  0  0  0  0
   -0.7937    0.1449    0.0000 C   0  0  0  0  0  0  0  0  0  0  0  0
   -2.1883    0.2185    0.0000 C   0  0  0  0  0  0  0  0  0  0  0  0
   -0.7044    0.9963    0.0000 C   0  0  0  0  0  0  0  0  0  0  0  0
   -2.1651    1.0589    0.0000 C   0  0  0  0  0  0  0  0  0  0  0  0
    0.0835    1.3911    0.0000 S   0  0  0  0  0  0  0  0  0  0  0  0
   -1.3969    1.4291    0.0000 C   0  0  0  0  0  0  0  0  0  0  0  0
    1.0063    1.3756    0.0000 C   0  0  0  0  0  0  0  0  0  0  0  0
   -1.2764    2.2302    0.0000 Cl  0  0  0  0  0  0  0  0  0  0  0  0
    1.5999    0.7059    0.0000 S   0  0  0  0  0  0  0  0  0  0  0  0
    1.8993   -0.1231    0.0000 P   0  0  0  0  0  0  0  0  0  0  0  0
    2.7252   -0.2409    0.0000 O   0  0  0  0  0  0  0  0  0  0  0  0
    1.1850   -0.5076    0.0000 O   0  0  0  0  0  0  0  0  0  0  0  0
    1.6219   -0.9580    0.0000 O   0  0  0  0  0  0  0  0  0  0  0  0
    0.8668    0.2338    0.0000 C   0  0  0  0  0  0  0  0  0  0  0  0
    1.0445   -1.6113    0.0000 C   0  0  0  0  0  0  0  0  0  0  0  0
    0.1543    0.6574    0.0000 C   0  0  0  0  0  0  0  0  0  0  0  0
    0.2872   -2.0071    0.0000 C   0  0  0  0  0  0  0  0  0  0  0  0
  1  2  1  0  0  0  0 
  2  3  1  0  0  0  0 
  2  4  2  0  0  0  0 
  3  5  2  0  0  0  0 
  6  4  1  0  0  0  0 
  5  7  1  0  0  0  0 
  5  8  1  0  0  0  0 
  8  6  2  0  0  0  0 
  7  9  1  0  0  0  0 
  8 10  1  0  0  0  0 
  9 11  1  0  0  0  0 
 11 12  1  0  0  0  0 
 12 13  2  0  0  0  0 
 12 14  1  0  0  0  0 
 12 15  1  0  0  0  0 
 14 16  1  0  0  0  0 
 15 17  1  0  0  0  0 
 16 18  1  0  0  0  0 
 17 19  1  0  0  0  0 
M  END
> <Name>
Phosphorothioic acid, S-(((2,5-dichlorophenyl)thio)methyl) O,O-diethyl ester

> <Source>
Smiles

> <Tox>
3.978

> <CAS>
14734-96-4

$$$$

  CDK

 25 28  0  0  0  0  0  0  0  0999 V2000
    0.0000    0.0000    0.0000 C   0  0  0  0  0  0  0  0  0  0  0  0
    1.4200   -0.0200    0.2800 N   0  0  0  0  0  0  0  0  0  0  0  0
    1.9200   -1.4000    0.3800 C   0  0  0  0  0  0  0  0  0  0  0  0
    2.2000    0.8600   -0.6200 C   0  0  0  0  0  0  0  0  0  0  0  0
    1.9000   -2.1200   -1.0000 C   0  0  0  0  0  0  0  0  0  0  0  0
    3.3400   -1.4000    1.0000 C   0  0  0  0  0  0  0  0  0  0  0  0
    2.9200    0.0800   -1.7600 C   0  0  0  0  0  0  0  0  0  0  0  0
    2.1400   -1.1600   -2.1800 C   0  0  0  0  0  0  0  0  0  0  0  0
    3.4200   -0.5400    2.2600 C   0  0  0  0  0  0  0  0  0  0  0  0
    3.4200   -1.3800    3.4800 N   0  0  0  0  0  0  0  0  0  0  0  0
    2.1800   -1.6600    4.0400 C   0  0  0  0  0  0  0  0  0  0  0  0
    4.6600   -1.8000    3.9600 C   0  0  0  0  0  0  0  0  0  0  0  0
    2.0000   -2.4600    5.2200 C   0  0  0  0  0  0  0  0  0  0  0  0
    1.0200   -1.1600    3.4200 C   0  0  0  0  0  0  0  0  0  0  0  0
    4.8400   -2.6200    5.1200 C   0  0  0  0  0  0  0  0  0  0  0  0
    5.8200   -1.4000    3.2400 C   0  0  0  0  0  0  0  0  0  0  0  0
    3.4200   -3.0400    5.9200 S   0  0  0  0  0  0  0  0  0  0  0  0
    0.7200   -2.7000    5.7200 C   0  0  0  0  0  0  0  0  0  0  0  0
   -0.2600   -1.4000    3.9200 C   0  0  0  0  0  0  0  0  0  0  0  0
    6.1200   -3.0000    5.5200 C   0  0  0  0  0  0  0  0  0  0  0  0
    7.1000   -1.8000    3.6600 C   0  0  0  0  0  0  0  0  0  0  0  0
   -0.4200   -2.1800    5.0800 C   0  0  0  0  0  0  0  0  0  0  0  0
   -1.3200   -0.9200    3.3200 O   0  0  0  0  0  0  0  0  0  0  0  0
    7.2600   -2.5800    4.8000 C   0  0  0  0  0  0  0  0  0  0  0  0
   -2.6000   -1.2000    3.8600 C   0  0  0  0  0  0  0  0  0  0  0  0
  1  2  1  0  0  0  0 
  2  3  1  0  0  0  0 
  2  4  1  0  0  0  0 
  3  5  1  0  0  0  0 
  3  6  1  0  0  0  0 
  7  4  1  0  0  0  0 
  5  8  1  0  0  0  0 
  9  6  1  0  0  0  0 
  8  7  1  0  0  0  0 
  9 10  1  0  0  0  0 
 10 11  1  0  0  0  0 
 10 12  1  0  0  0  0 
 11 13  2  0  0  0  0 
 11 14  1  0  0  0  0 
 15 12  2  0  0  0  0 
 12 16  1  0  0  0  0 
 13 17  1  0  0  0  0 
 13 18  1  0  0  0  0 
 19 14  2  0  0  0  0 
 17 15  1  0  0  0  0 
 15 20  1  0  0  0  0 
 16 21  2  0  0  0  0 
 18 22  2  0  0  0  0 
 22 19  1  0  0  0  0 
 19 23  1  0  0  0  0 
 24 20  2  0  0  0  0 
 21 24  1  0  0  0  0 
 25 23  1  0  0  0  0 
M  END
> <Name>
10H-Phenothiazine, 2-methoxy-10-(2-(1-methyl-2-piperidinyl)ethyl)- (9CI)

> <Source>
NIH3DMolFile

> <Tox>
2.497

> <CAS>
14759-04-7

$$$$

  CDK

 14 16  0  0  0  0  0  0  0  0999 V2000
    2.0439   -0.4847    0.0000 C   0  0  0  0  0  0  0  0  0  0  0  0
    3.3285   -0.0646    0.0000 N   0  0  0  0  0  0  0  0  0  0  0  0
    2.0439   -1.8177    0.0000 N   0  0  0  0  0  0  0  0  0  0  0  0
    0.7756   -0.0646    0.0000 S   0  0  0  0  0  0  0  0  0  0  0  0
    4.1040   -1.1310    0.0000 C   0  0  0  0  0  0  0  0  0  0  0  0
    3.3285   -2.2217    0.0000 C   0  0  0  0  0  0  0  0  0  0  0  0
    0.7756   -2.2217    0.0000 C   0  0  0  0  0  0  0  0  0  0  0  0
    0.0000   -1.1310    0.0000 C   0  0  0  0  0  0  0  0  0  0  0  0
    5.4370   -1.1310    0.0000 C   0  0  0  0  0  0  0  0  0  0  0  0
    6.0833   -0.0000    0.0000 C   0  0  0  0  0  0  0  0  0  0  0  0
    6.0833   -2.2863    0.0000 C   0  0  0  0  0  0  0  0  0  0  0  0
    7.4163   -0.0000    0.0000 C   0  0  0  0  0  0  0  0  0  0  0  0
    7.4163   -2.2863    0.0000 C   0  0  0  0  0  0  0  0  0  0  0  0
    8.0788   -1.1310    0.0000 C   0  0  0  0  0  0  0  0  0  0  0  0
  1  2  2  0  0  0  0 
  1  3  1  0  0  0  0 
  1  4  1  0  0  0  0 
  2  5  1  0  0  0  0 
  3  6  1  0  0  0  0 
  3  7  1  0  0  0  0 
  4  8  1  0  0  0  0 
  5  9  1  1  0  0  0 
  5  6  1  0  0  0  0 
  7  8  1  0  0  0  0 
  9 10  2  0  0  0  0 
  9 11  1  0  0  0  0 
 10 12  1  0  0  0  0 
 11 13  2  0  0  0  0 
 12 14  2  0  0  0  0 
 13 14  1  0  0  0  0 
M  END
> <Name>
Imidazo(2,1-b)thiazole, 2,3,5,6-tetrahydro-6-phenyl-, (6S)-

> <Source>
DSSTox2DMolFile

> <Tox>
2.629

> <CAS>
14769-73-4

$$$$

  CDK

 21 23  0  0  0  0  0  0  0  0999 V2000
    3.6266    0.2152   -1.7534 O   0  0  0  0  0  0  0  0  0  0  0  0
    2.8512   -0.7278   -1.8104 C   0  0  0  0  0  0  0  0  0  0  0  0
    2.8253   -1.8248   -2.6846 N   0  0  0  0  0  0  0  0  0  0  0  0
    1.7630   -0.9783   -0.7930 C   0  0  0  0  0  0  0  0  0  0  0  0
    1.6987   -2.6420   -2.4229 N   0  0  0  0  0  0  0  0  0  0  0  0
    3.9764   -2.2519   -3.4135 C   0  0  0  0  0  0  0  0  0  0  0  0
    1.0668   -2.2439   -1.2347 C   0  0  0  0  0  0  0  0  0  0  0  0
    0.7987    0.1920   -0.7240 C   0  0  0  0  0  0  0  0  0  0  0  0
    1.0384   -3.4387   -3.4071 C   0  0  0  0  0  0  0  0  0  0  0  0
    4.9489   -1.3244   -3.7937 C   0  0  0  0  0  0  0  0  0  0  0  0
    4.1344   -3.5986   -3.7483 C   0  0  0  0  0  0  0  0  0  0  0  0
    0.0898   -2.7124   -0.6693 O   0  0  0  0  0  0  0  0  0  0  0  0
    0.0982    0.4233   -2.0531 C   0  0  0  0  0  0  0  0  0  0  0  0
    0.0498   -4.3485   -3.0248 C   0  0  0  0  0  0  0  0  0  0  0  0
    1.3779   -3.3111   -4.7561 C   0  0  0  0  0  0  0  0  0  0  0  0
    6.0737   -1.7414   -4.5055 C   0  0  0  0  0  0  0  0  0  0  0  0
    5.2593   -4.0155   -4.4599 C   0  0  0  0  0  0  0  0  0  0  0  0
   -0.5955   -5.1265   -3.9860 C   0  0  0  0  0  0  0  0  0  0  0  0
    0.7324   -4.0892   -5.7172 C   0  0  0  0  0  0  0  0  0  0  0  0
    6.2289   -3.0869   -4.8385 C   0  0  0  0  0  0  0  0  0  0  0  0
   -0.2543   -4.9968   -5.3321 C   0  0  0  0  0  0  0  0  0  0  0  0
  1  2  2  0  0  0  0 
  3  2  1  0  0  0  0 
  4  2  1  0  0  0  0 
  3  5  1  0  0  0  0 
  3  6  1  0  0  0  0 
  4  7  1  0  0  0  0 
  4  8  1  0  0  0  0 
  5  7  1  0  0  0  0 
  5  9  1  0  0  0  0 
  6 10  2  0  0  0  0 
  6 11  1  0  0  0  0 
 12  7  2  0  0  0  0 
  8 13  1  0  0  0  0 
  9 14  2  0  0  0  0 
  9 15  1  0  0  0  0 
 10 16  1  0  0  0  0 
 11 17  2  0  0  0  0 
 14 18  1  0  0  0  0 
 15 19  2  0  0  0  0 
 16 20  2  0  0  0  0 
 17 20  1  0  0  0  0 
 18 21  2  0  0  0  0 
 19 21  1  0  0  0  0 
M  END
> <Name>
3,5-Pyrazolidinedione, 1,2-diphenyl-4-ethyl-

> <Source>
Chemidplus3DMolFile

> <Tox>
2.573

> <CAS>
14845-06-8

$$$$

  CDK

 21 22  0  0  0  0  0  0  0  0999 V2000
    4.5605   -1.4762    1.0983 Cl  0  0  0  0  0  0  0  0  0  0  0  0
    2.9098   -1.1369    1.3736 C   0  0  0  0  0  0  0  0  0  0  0  0
    2.4397   -1.3943    2.6725 C   0  0  0  0  0  0  0  0  0  0  0  0
    2.0107   -0.6336    0.4252 C   0  0  0  0  0  0  0  0  0  0  0  0
    3.1051   -1.8827    3.7734 N   0  0  0  0  0  0  0  0  0  0  0  0
    1.1039   -1.1422    2.9730 C   0  0  0  0  0  0  0  0  0  0  0  0
    2.4862   -0.3713   -0.8958 N   0  0  0  0  0  0  0  0  0  0  0  0
    0.6757   -0.3909    0.7567 C   0  0  0  0  0  0  0  0  0  0  0  0
    2.2006   -1.9293    4.7258 C   0  0  0  0  0  0  0  0  0  0  0  0
    0.9794   -1.4933    4.2928 N   0  0  0  0  0  0  0  0  0  0  0  0
    0.1908   -0.6411    2.0446 C   0  0  0  0  0  0  0  0  0  0  0  0
    3.6877   -0.6006   -1.1572 O   0  0  0  0  0  0  0  0  0  0  0  0
    1.6841    0.0779   -1.7439 O   0  0  0  0  0  0  0  0  0  0  0  0
   -0.4106    0.2357   -0.4555 Cl  0  0  0  0  0  0  0  0  0  0  0  0
    2.4039   -2.3836    6.1138 C   0  0  0  0  0  0  0  0  0  0  0  0
   -1.1726   -0.3927    2.3814 N   0  0  0  0  0  0  0  0  0  0  0  0
    3.6852   -2.7900    6.3927 F   0  0  0  0  0  0  0  0  0  0  0  0
    2.1345   -1.4303    7.0640 F   0  0  0  0  0  0  0  0  0  0  0  0
    1.6149   -3.4522    6.4553 F   0  0  0  0  0  0  0  0  0  0  0  0
   -1.5579   -0.6333    3.5479 O   0  0  0  0  0  0  0  0  0  0  0  0
   -1.9380    0.0579    1.4992 O   0  0  0  0  0  0  0  0  0  0  0  0
  1  2  1  0  0  0  0 
  3  2  1  0  0  0  0 
  2  4  2  0  0  0  0 
  5  3  1  0  0  0  0 
  6  3  2  0  0  0  0 
  7  4  1  0  0  0  0 
  4  8  1  0  0  0  0 
  5  9  2  0  0  0  0 
 10  6  1  0  0  0  0 
  6 11  1  0  0  0  0 
 12  7  1  0  0  0  0 
 13  7  2  0  0  0  0 
 14  8  1  0  0  0  0 
 11  8  2  0  0  0  0 
 10  9  1  0  0  0  0 
  9 15  1  0  0  0  0 
 16 11  1  0  0  0  0 
 17 15  1  0  0  0  0 
 18 15  1  0  0  0  0 
 19 15  1  0  0  0  0 
 20 16  1  0  0  0  0 
 21 16  2  0  0  0  0 
M  CHG  1   7   1
M  CHG  1  12  -1
M  CHG  1  16   1
M  CHG  1  20  -1
M  END
> <Name>
Benzimidazole, 4,6-dichloro-5,7-dinitro-2-(trifluoromethyl)-

> <Source>
Chemidplus3DMolFile

> <Tox>
3.470

> <CAS>
14863-50-4

$$$$

  CDK

 14 14  0  0  0  0  0  0  0  0999 V2000
    6.6492   -2.4669    0.0000 O   0  0  0  0  0  0  0  0  0  0  0  0
    5.9843   -3.6172    0.0000 C   0  0  0  0  0  0  0  0  0  0  0  0
    4.6545   -3.6172    0.0000 C   0  0  0  0  0  0  0  0  0  0  0  0
    6.6492   -4.7675    0.0000 C   0  0  0  0  0  0  0  0  0  0  0  0
    3.9895   -2.4669    0.0000 C   0  0  0  0  0  0  0  0  0  0  0  0
    2.6597   -2.4669    0.0000 C   0  0  0  0  0  0  0  0  0  0  0  0
    1.9948   -3.6172    0.0000 C   0  0  0  0  0  0  0  0  0  0  0  0
    1.9948   -1.3099    0.0000 C   0  0  0  0  0  0  0  0  0  0  0  0
    0.6649   -3.6172    0.0000 C   0  0  0  0  0  0  0  0  0  0  0  0
    2.6597   -4.7675    0.0000 C   0  0  0  0  0  0  0  0  0  0  0  0
    0.6649   -1.3099    0.0000 C   0  0  0  0  0  0  0  0  0  0  0  0
    1.7621   -0.0000    0.0000 C   0  0  0  0  0  0  0  0  0  0  0  0
    3.2448   -0.8578    0.0000 C   0  0  0  0  0  0  0  0  0  0  0  0
    0.0000   -2.4669    0.0000 C   0  0  0  0  0  0  0  0  0  0  0  0
  1  2  2  0  0  0  0 
  2  3  1  0  0  0  0 
  2  4  1  0  0  0  0 
  3  5  2  0  0  0  0 
  5  6  1  0  0  0  0 
  6  7  2  0  0  0  0 
  6  8  1  0  0  0  0 
  7  9  1  0  0  0  0 
  7 10  1  0  0  0  0 
 11  8  1  0  0  0  0 
  8 12  1  0  0  0  0 
  8 13  1  0  0  0  0 
  9 14  1  0  0  0  0 
 14 11  1  0  0  0  0 
M  END
> <Name>
4-(2,6,6-Trimethylcyclohex-1-ene-1-yl)-but-3-ene-2-one

> <Source>
DSSTox2DMolFile

> <Tox>
1.622

> <CAS>
14901-07-6

$$$$

  CDK

 19 18  0  0  0  0  0  0  0  0999 V2000
   -1.4667    3.6159   -2.0342 Si  0  0  0  0  0  0  0  0  0  0  0  0
   -1.8118    4.8946   -1.0037 O   0  0  0  0  0  0  0  0  0  0  0  0
   -0.7421    4.2055   -3.4284 O   0  0  0  0  0  0  0  0  0  0  0  0
   -2.9105    2.8607   -2.4354 O   0  0  0  0  0  0  0  0  0  0  0  0
   -0.2929    2.3888   -1.1888 C   0  0  0  0  0  0  0  0  0  0  0  0
   -0.7561    5.7155   -0.5248 C   0  0  0  0  0  0  0  0  0  0  0  0
   -1.4388    5.1466   -4.2329 C   0  0  0  0  0  0  0  0  0  0  0  0
   -2.8999    1.7470   -3.3169 C   0  0  0  0  0  0  0  0  0  0  0  0
   -0.9516    1.8897    0.0157 N   0  0  0  0  0  0  0  0  0  0  0  0
   -1.3336    6.7846    0.3781 C   0  0  0  0  0  0  0  0  0  0  0  0
   -0.5750    5.5156   -5.4201 C   0  0  0  0  0  0  0  0  0  0  0  0
   -4.3194    1.2582   -3.5109 C   0  0  0  0  0  0  0  0  0  0  0  0
   -0.1098    0.9164    0.7004 C   0  0  0  0  0  0  0  0  0  0  0  0
   -0.8147    0.3909    1.9498 C   0  0  0  0  0  0  0  0  0  0  0  0
    0.0622   -0.6179    2.6965 C   0  0  0  0  0  0  0  0  0  0  0  0
   -0.6570   -1.1720    3.9285 C   0  0  0  0  0  0  0  0  0  0  0  0
    0.1891   -2.1652    4.7315 C   0  0  0  0  0  0  0  0  0  0  0  0
   -0.5588   -2.7751    5.9167 C   0  0  0  0  0  0  0  0  0  0  0  0
    0.3035   -3.7147    6.6255 N   0  0  0  0  0  0  0  0  0  0  0  0
  1  2  1  0  0  0  0 
  1  3  1  0  0  0  0 
  1  4  1  0  0  0  0 
  1  5  1  0  0  0  0 
  2  6  1  0  0  0  0 
  3  7  1  0  0  0  0 
  4  8  1  0  0  0  0 
  9  5  1  0  0  0  0 
  6 10  1  0  0  0  0 
  7 11  1  0  0  0  0 
  8 12  1  0  0  0  0 
  9 13  1  0  0  0  0 
 14 13  1  0  0  0  0 
 14 15  1  0  0  0  0 
 15 16  1  0  0  0  0 
 16 17  1  0  0  0  0 
 17 18  1  0  0  0  0 
 19 18  1  0  0  0  0 
M  END
> <Name>
1,6-Hexanediamine, N-((triethoxysilyl)methyl)-

> <Source>
Chemidplus3DMolFile

> <Tox>
2.767

> <CAS>
15129-36-9

$$$$

  CDK

 21 20  0  0  0  0  0  0  0  0999 V2000
    4.8067    1.2133    0.0000 Si  0  0  0  0  0  0  0  0  0  0  0  0
    5.5067    0.0000    0.0000 C   0  0  0  0  0  0  0  0  0  0  0  0
    6.1600    1.6800    0.0000 O   0  0  0  0  0  0  0  0  0  0  0  0
    3.4067    1.2133    0.0000 O   0  0  0  0  0  0  0  0  0  0  0  0
    4.5733    2.5667    0.0000 O   0  0  0  0  0  0  0  0  0  0  0  0
    6.9067    0.0000    0.0000 C   0  0  0  0  0  0  0  0  0  0  0  0
    6.3933    3.0800    0.0000 O   0  0  0  0  0  0  0  0  0  0  0  0
    2.7067    2.4267    0.0000 O   0  0  0  0  0  0  0  0  0  0  0  0
    5.6467    3.5000    0.0000 O   0  0  0  0  0  0  0  0  0  0  0  0
    7.7000    3.5467    0.0000 C   0  0  0  0  0  0  0  0  0  0  0  0
    1.3067    2.4267    0.0000 C   0  0  0  0  0  0  0  0  0  0  0  0
    5.4133    4.8533    0.0000 C   0  0  0  0  0  0  0  0  0  0  0  0
    8.7733    4.4333    0.0000 C   0  0  0  0  0  0  0  0  0  0  0  0
    8.7733    2.6600    0.0000 C   0  0  0  0  0  0  0  0  0  0  0  0
    7.0000    4.7600    0.0000 C   0  0  0  0  0  0  0  0  0  0  0  0
    0.0000    1.9600    0.0000 C   0  0  0  0  0  0  0  0  0  0  0  0
    0.6067    3.6400    0.0000 C   0  0  0  0  0  0  0  0  0  0  0  0
    1.5867    1.0267    0.0000 C   0  0  0  0  0  0  0  0  0  0  0  0
    4.7133    6.0667    0.0000 C   0  0  0  0  0  0  0  0  0  0  0  0
    6.4867    5.7400    0.0000 C   0  0  0  0  0  0  0  0  0  0  0  0
    4.1067    4.3867    0.0000 C   0  0  0  0  0  0  0  0  0  0  0  0
  1  2  1  0  0  0  0 
  1  3  1  0  0  0  0 
  1  4  1  0  0  0  0 
  1  5  1  0  0  0  0 
  2  6  2  0  0  0  0 
  3  7  1  0  0  0  0 
  4  8  1  0  0  0  0 
  5  9  1  0  0  0  0 
  7 10  1  0  0  0  0 
  8 11  1  0  0  0  0 
  9 12  1  0  0  0  0 
 10 13  1  0  0  0  0 
 10 14  1  0  0  0  0 
 10 15  1  0  0  0  0 
 11 16  1  0  0  0  0 
 11 17  1  0  0  0  0 
 11 18  1  0  0  0  0 
 12 19  1  0  0  0  0 
 12 20  1  0  0  0  0 
 12 21  1  0  0  0  0 
M  END
> <Name>
Peroxide, (vinylsilylidyne)tris(tert-butyl- (6CI,7CI)

> <Source>
IndexNet2DMolFile

> <Tox>
2.289

> <CAS>
15188-09-7

$$$$

  CDK

 17 16  0  0  0  0  0  0  0  0999 V2000
    2.0529    0.0794    0.0000 Si  0  0  0  0  0  0  0  0  0  0  0  0
    1.5396    0.3757    0.0000 C   0  0  0  0  0  0  0  0  0  0  0  0
    1.7566   -0.4338    0.0000 C   0  0  0  0  0  0  0  0  0  0  0  0
    2.5661   -0.2169    0.0000 O   0  0  0  0  0  0  0  0  0  0  0  0
    2.3492    0.5926    0.0000 O   0  0  0  0  0  0  0  0  0  0  0  0
    1.0264    0.0794    0.0000 N   0  0  0  0  0  0  0  0  0  0  0  0
    2.5661   -0.8095    0.0000 C   0  0  0  0  0  0  0  0  0  0  0  0
    2.0529    1.1058    0.0000 C   0  0  0  0  0  0  0  0  0  0  0  0
    0.5132    0.3757    0.0000 C   0  0  0  0  0  0  0  0  0  0  0  0
    2.0529   -1.1058    0.0000 C   0  0  0  0  0  0  0  0  0  0  0  0
    1.4602    1.1058    0.0000 C   0  0  0  0  0  0  0  0  0  0  0  0
   -0.0000    0.0794    0.0000 C   0  0  0  0  0  0  0  0  0  0  0  0
   -0.5132    0.3757    0.0000 C   0  0  0  0  0  0  0  0  0  0  0  0
   -1.0264    0.0794    0.0000 C   0  0  0  0  0  0  0  0  0  0  0  0
   -1.5396    0.3757    0.0000 C   0  0  0  0  0  0  0  0  0  0  0  0
   -2.0529    0.0794    0.0000 C   0  0  0  0  0  0  0  0  0  0  0  0
   -2.5661    0.3757    0.0000 N   0  0  0  0  0  0  0  0  0  0  0  0
  1  2  1  0  0  0  0 
  1  3  1  0  0  0  0 
  1  4  1  0  0  0  0 
  1  5  1  0  0  0  0 
  6  2  1  0  0  0  0 
  4  7  1  0  0  0  0 
  5  8  1  0  0  0  0 
  6  9  1  0  0  0  0 
  7 10  1  0  0  0  0 
  8 11  1  0  0  0  0 
 12  9  1  0  0  0  0 
 13 12  1  0  0  0  0 
 13 14  1  0  0  0  0 
 14 15  1  0  0  0  0 
 15 16  1  0  0  0  0 
 17 16  1  0  0  0  0 
M  END
> <Name>
1,6-Hexanediamine, N-((diethoxymethylsilyl)methyl)-

> <Source>
Other

> <Tox>
2.641

> <CAS>
15383-20-7

$$$$

  CDK

 20 21  0  0  0  0  0  0  0  0999 V2000
    2.0727    6.7054   -1.8793 Cl  0  0  0  0  0  0  0  0  0  0  0  0
    2.4297    5.4683   -0.7272 C   0  0  0  0  0  0  0  0  0  0  0  0
    1.5230    4.4553   -0.4285 C   0  0  0  0  0  0  0  0  0  0  0  0
    3.6616    5.4971   -0.0855 C   0  0  0  0  0  0  0  0  0  0  0  0
    0.2664    4.4333   -1.0875 N   0  0  0  0  0  0  0  0  0  0  0  0
    1.8475    3.4662    0.5154 C   0  0  0  0  0  0  0  0  0  0  0  0
    3.9840    4.5136    0.8529 C   0  0  0  0  0  0  0  0  0  0  0  0
   -0.2909    5.5843   -1.7173 C   0  0  0  0  0  0  0  0  0  0  0  0
    3.0964    3.4893    1.1709 C   0  0  0  0  0  0  0  0  0  0  0  0
    0.9536    2.4354    0.8351 C   0  0  0  0  0  0  0  0  0  0  0  0
    5.3236    4.5867    1.5182 C   0  0  0  0  0  0  0  0  0  0  0  0
   -1.7880    5.3848   -1.9152 C   0  0  0  0  0  0  0  0  0  0  0  0
    3.4389    2.5573    2.0803 N   0  0  0  0  0  0  0  0  0  0  0  0
    1.3037    1.4736    1.7718 C   0  0  0  0  0  0  0  0  0  0  0  0
   -2.3797    6.5646   -2.5337 N   0  0  0  0  0  0  0  0  0  0  0  0
    2.5477    1.5790    2.3603 C   0  0  0  0  0  0  0  0  0  0  0  0
   -3.8254    6.3943   -2.6912 C   0  0  0  0  0  0  0  0  0  0  0  0
   -1.7566    6.8348   -3.8308 C   0  0  0  0  0  0  0  0  0  0  0  0
   -4.4937    6.1126   -1.3562 C   0  0  0  0  0  0  0  0  0  0  0  0
   -2.3179    8.1004   -4.4564 C   0  0  0  0  0  0  0  0  0  0  0  0
  1  2  1  0  0  0  0 
  3  2  2  0  0  0  0 
  2  4  1  0  0  0  0 
  5  3  1  0  0  0  0 
  3  6  1  0  0  0  0 
  7  4  2  0  0  0  0 
  5  8  1  0  0  0  0 
  6  9  2  0  0  0  0 
  6 10  1  0  0  0  0 
  9  7  1  0  0  0  0 
  7 11  1  0  0  0  0 
 12  8  1  0  0  0  0 
 13  9  1  0  0  0  0 
 10 14  2  0  0  0  0 
 15 12  1  0  0  0  0 
 13 16  2  0  0  0  0 
 14 16  1  0  0  0  0 
 15 17  1  0  0  0  0 
 15 18  1  0  0  0  0 
 17 19  1  0  0  0  0 
 18 20  1  0  0  0  0 
M  END
> <Name>
1,2-Ethanediamine, N'-(6-chloro-8-methyl-5-quinolinyl)-N,N-diethyl- (9CI)

> <Source>
Chemidplus3DMolFile

> <Tox>
2.511

> <CAS>
15386-51-3

$$$$

  CDK

 15 16  0  0  0  0  0  0  0  0999 V2000
    1.5586    1.5083    0.0000 N   0  0  0  0  0  0  0  0  0  0  0  0
    0.5028    1.5083    0.0000 C   0  0  0  0  0  0  0  0  0  0  0  0
    2.0614    2.4133    0.0000 C   0  0  0  0  0  0  0  0  0  0  0  0
    1.5586    0.0000    0.0000 N   0  0  0  0  0  0  0  0  0  0  0  0
    0.0000    2.4133    0.0000 N   0  0  0  0  0  0  0  0  0  0  0  0
    0.1006    0.8044    0.0000 N   0  0  0  0  0  0  0  0  0  0  0  0
    1.5586    3.2681    0.0000 C   0  0  0  0  0  0  0  0  0  0  0  0
    3.0167    2.4133    0.0000 N   0  0  0  0  0  0  0  0  0  0  0  0
    0.6033    0.0000    0.0000 C   0  0  0  0  0  0  0  0  0  0  0  0
    0.5028    3.2681    0.0000 C   0  0  0  0  0  0  0  0  0  0  0  0
    3.5697    3.1675    0.0000 C   0  0  0  0  0  0  0  0  0  0  0  0
    3.5697    1.6089    0.0000 C   0  0  0  0  0  0  0  0  0  0  0  0
    0.0000    4.1731    0.0000 C   0  0  0  0  0  0  0  0  0  0  0  0
    4.4245    3.1675    0.0000 C   0  0  0  0  0  0  0  0  0  0  0  0
    4.4245    1.6089    0.0000 C   0  0  0  0  0  0  0  0  0  0  0  0
  1  2  1  0  0  0  0 
  1  3  1  0  0  0  0 
  4  1  1  0  0  0  0 
  5  2  1  0  0  0  0 
  2  6  2  0  0  0  0 
  3  7  2  0  0  0  0 
  3  8  1  0  0  0  0 
  9  4  2  0  0  0  0 
 10  5  2  0  0  0  0 
  6  9  1  0  0  0  0 
  7 10  1  0  0  0  0 
  8 11  1  0  0  0  0 
  8 12  1  0  0  0  0 
 10 13  1  0  0  0  0 
 14 11  1  0  0  0  0 
 12 15  1  0  0  0  0 
M  END
> <Name>
(1,2,4)Triazolo(1,5-a)pyrimidin-7-amine, N,N-diethyl-5-methyl-

> <Source>
NIST2DMolFile

> <Tox>
2.941

> <CAS>
15421-84-8

$$$$

  CDK

 19 20  0  0  0  0  0  0  0  0999 V2000
    0.0003    0.0026   -1.9710 C   0  0  0  0  0  0  0  0  0  0  0  0
   -1.1582    0.4433   -1.1276 C   0  0  0  0  0  0  0  0  0  0  0  0
    1.1583   -0.4401   -1.1278 C   0  0  0  0  0  0  0  0  0  0  0  0
   -2.2237   -0.4252   -0.7978 C   0  0  0  0  0  0  0  0  0  0  0  0
   -1.1958    1.7570   -0.6628 C   0  0  0  0  0  0  0  0  0  0  0  0
    2.2248    0.4269   -0.7975 C   0  0  0  0  0  0  0  0  0  0  0  0
    1.1942   -1.7541   -0.6638 C   0  0  0  0  0  0  0  0  0  0  0  0
   -3.2684    0.0674   -0.0172 C   0  0  0  0  0  0  0  0  0  0  0  0
   -2.1605   -1.7025   -1.2706 O   0  0  0  0  0  0  0  0  0  0  0  0
   -2.2584    2.2118    0.1180 C   0  0  0  0  0  0  0  0  0  0  0  0
    3.2687   -0.0674   -0.0169 C   0  0  0  0  0  0  0  0  0  0  0  0
    2.1632    1.7047   -1.2692 O   0  0  0  0  0  0  0  0  0  0  0  0
    2.2556   -2.2104    0.1174 C   0  0  0  0  0  0  0  0  0  0  0  0
   -3.3112    1.3654    0.4507 C   0  0  0  0  0  0  0  0  0  0  0  0
   -4.7127   -1.0226    0.4591 Br  0  0  0  0  0  0  0  0  0  0  0  0
   -2.2659    3.8060    0.6628 Cl  0  0  0  0  0  0  0  0  0  0  0  0
    3.3095   -1.3656    0.4508 C   0  0  0  0  0  0  0  0  0  0  0  0
    4.7150    1.0199    0.4596 Br  0  0  0  0  0  0  0  0  0  0  0  0
    2.2609   -3.8048    0.6616 Cl  0  0  0  0  0  0  0  0  0  0  0  0
  1  2  1  0  0  0  0 
  1  3  1  0  0  0  0 
  4  2  1  0  0  0  0 
  2  5  2  0  0  0  0 
  6  3  1  0  0  0  0 
  3  7  2  0  0  0  0 
  4  8  2  0  0  0  0 
  4  9  1  0  0  0  0 
  5 10  1  0  0  0  0 
  6 11  2  0  0  0  0 
  6 12  1  0  0  0  0 
  7 13  1  0  0  0  0 
 14  8  1  0  0  0  0 
  8 15  1  0  0  0  0 
 10 14  2  0  0  0  0 
 10 16  1  0  0  0  0 
 17 11  1  0  0  0  0 
 11 18  1  0  0  0  0 
 13 17  2  0  0  0  0 
 13 19  1  0  0  0  0 
M  END
> <Name>
3,3-Dibromo-5,5-dichloro-2,2-dihydroxydiphenylmethane

> <Source>
DougDB3DMolFile

> <Tox>
2.062

> <CAS>
15435-29-7

$$$$

  CDK

 20 21  0  0  0  0  0  0  0  0999 V2000
    0.0089   -2.2679    0.0000 C   0  0  0  0  0  0  0  0  0  0  0  0
   -0.2461   -3.0525    0.0000 O   0  0  0  0  0  0  0  0  0  0  0  0
    0.7935   -2.0129    0.0000 C   0  0  0  0  0  0  0  0  0  0  0  0
   -0.4761   -1.6004    0.0000 C   0  0  0  0  0  0  0  0  0  0  0  0
    1.4609   -2.4978    0.0000 C   0  0  0  0  0  0  0  0  0  0  0  0
    0.7935   -1.1879    0.0000 C   0  0  0  0  0  0  0  0  0  0  0  0
    0.0089   -0.9330    0.0000 C   0  0  0  0  0  0  0  0  0  0  0  0
    2.1284   -2.9828    0.0000 C   0  0  0  0  0  0  0  0  0  0  0  0
    1.4609   -0.7030    0.0000 C   0  0  0  0  0  0  0  0  0  0  0  0
   -0.4666   -0.2587    0.0000 O   0  0  0  0  0  0  0  0  0  0  0  0
    2.0421   -3.8032    0.0000 C   0  0  0  0  0  0  0  0  0  0  0  0
   -0.1204    0.4901    0.0000 C   0  0  0  0  0  0  0  0  0  0  0  0
    0.7013    0.5647    0.0000 O   0  0  0  0  0  0  0  0  0  0  0  0
   -0.5958    1.1643    0.0000 C   0  0  0  0  0  0  0  0  0  0  0  0
   -0.6704    1.9860    0.0000 C   0  0  0  0  0  0  0  0  0  0  0  0
   -1.3446    1.5105    0.0000 C   0  0  0  0  0  0  0  0  0  0  0  0
   -0.5610    2.8037    0.0000 C   0  0  0  0  0  0  0  0  0  0  0  0
    0.1142    2.2409    0.0000 C   0  0  0  0  0  0  0  0  0  0  0  0
   -2.1075    1.1965    0.0000 C   0  0  0  0  0  0  0  0  0  0  0  0
   -1.9577    2.0626    0.0000 C   0  0  0  0  0  0  0  0  0  0  0  0
  1  2  2  0  0  0  0 
  1  3  1  0  0  0  0 
  1  4  1  0  0  0  0 
  3  5  1  0  0  0  0 
  3  6  2  0  0  0  0 
  7  4  1  0  0  0  0 
  5  8  1  0  0  0  0 
  6  9  1  0  0  0  0 
  6  7  1  0  0  0  0 
  7 10  1  0  0  0  0 
  8 11  2  0  0  0  0 
 10 12  1  0  0  0  0 
 12 13  2  0  0  0  0 
 12 14  1  0  0  0  0 
 14 15  1  0  0  0  0 
 14 16  1  0  0  0  0 
 15 17  1  0  0  0  0 
 15 18  1  0  0  0  0 
 15 16  1  0  0  0  0 
 16 19  1  0  0  0  0 
 16 20  1  0  0  0  0 
M  END
> <Name>
Cyclopropanecarboxylic acid, 2,2,3,3-tetramethyl-, ester with 2-allyl-4-hydroxy-3-methyl-2-cyclopenten-1-one

> <Source>
Smiles

> <Tox>
3.201

> <CAS>
15589-31-8

$$$$

  CDK

 21 20  0  0  0  0  0  0  0  0999 V2000
    8.0739   -5.0993    0.0000 C   0  0  0  0  0  0  0  0  0  0  0  0
    9.2243   -5.7730    0.0000 C   0  0  0  0  0  0  0  0  0  0  0  0
    6.9131   -5.7730    0.0000 O   0  0  0  0  0  0  0  0  0  0  0  0
    8.0739   -3.7726    0.0000 O   0  0  0  0  0  0  0  0  0  0  0  0
   10.3644   -5.0993    0.0000 C   0  0  0  0  0  0  0  0  0  0  0  0
    5.7626   -5.0993    0.0000 C   0  0  0  0  0  0  0  0  0  0  0  0
    4.6018   -5.7730    0.0000 C   0  0  0  0  0  0  0  0  0  0  0  0
    3.9488   -4.6225    0.0000 C   0  0  0  0  0  0  0  0  0  0  0  0
    5.2755   -6.9234    0.0000 C   0  0  0  0  0  0  0  0  0  0  0  0
    3.4514   -6.4363    0.0000 C   0  0  0  0  0  0  0  0  0  0  0  0
    4.6018   -3.4617    0.0000 O   0  0  0  0  0  0  0  0  0  0  0  0
    4.6018   -8.0635    0.0000 C   0  0  0  0  0  0  0  0  0  0  0  0
    2.2905   -5.7730    0.0000 O   0  0  0  0  0  0  0  0  0  0  0  0
    3.9488   -2.3113    0.0000 C   0  0  0  0  0  0  0  0  0  0  0  0
    1.1401   -6.4363    0.0000 C   0  0  0  0  0  0  0  0  0  0  0  0
    4.6018   -1.1505    0.0000 C   0  0  0  0  0  0  0  0  0  0  0  0
    2.6118   -2.3113    0.0000 O   0  0  0  0  0  0  0  0  0  0  0  0
    1.1401   -7.7629    0.0000 C   0  0  0  0  0  0  0  0  0  0  0  0
    0.0000   -5.7730    0.0000 O   0  0  0  0  0  0  0  0  0  0  0  0
    3.9488   -0.0000    0.0000 C   0  0  0  0  0  0  0  0  0  0  0  0
    2.2905   -8.4366    0.0000 C   0  0  0  0  0  0  0  0  0  0  0  0
  1  2  1  0  0  0  0 
  1  3  1  0  0  0  0 
  1  4  2  0  0  0  0 
  2  5  2  0  0  0  0 
  3  6  1  0  0  0  0 
  7  6  1  0  0  0  0 
  8  7  1  0  0  0  0 
  7  9  1  0  0  0  0 
  7 10  1  0  0  0  0 
 11  8  1  0  0  0  0 
  9 12  1  0  0  0  0 
 10 13  1  0  0  0  0 
 14 11  1  0  0  0  0 
 13 15  1  0  0  0  0 
 14 16  1  0  0  0  0 
 14 17  2  0  0  0  0 
 15 18  1  0  0  0  0 
 15 19  2  0  0  0  0 
 16 20  2  0  0  0  0 
 18 21  2  0  0  0  0 
M  END
> <Name>
2-Propenoic acid, 2-ethyl-2-(((1-oxo-2-propenyl)oxy)methyl)-1,3-propanediyl ester

> <Source>
DSSTox2DMolFile

> <Tox>
1.715

> <CAS>
15625-89-5

$$$$

  CDK

 24 27  0  0  0  0  0  0  0  0999 V2000
    9.8412    0.0000    0.0000 Cl  0  0  0  0  0  0  0  0  0  0  0  0
    8.6285    0.6996    0.0000 C   0  0  0  0  0  0  0  0  0  0  0  0
    7.4159    0.0000    0.0000 C   0  0  0  0  0  0  0  0  0  0  0  0
    8.6285    2.0988    0.0000 C   0  0  0  0  0  0  0  0  0  0  0  0
    6.2032    0.6996    0.0000 C   0  0  0  0  0  0  0  0  0  0  0  0
    7.4159    2.7984    0.0000 C   0  0  0  0  0  0  0  0  0  0  0  0
    6.2032    2.0988    0.0000 C   0  0  0  0  0  0  0  0  0  0  0  0
    7.6491    4.1977    0.0000 C   0  0  0  0  0  0  0  0  0  0  0  0
    4.9439    2.6119    0.0000 N   0  0  0  0  0  0  0  0  0  0  0  0
    6.6696    5.1771    0.0000 N   0  0  0  0  0  0  0  0  0  0  0  0
    9.0017    4.6174    0.0000 C   0  0  0  0  0  0  0  0  0  0  0  0
    4.5242    3.9645    0.0000 C   0  0  0  0  0  0  0  0  0  0  0  0
    5.3170    5.0838    0.0000 C   0  0  0  0  0  0  0  0  0  0  0  0
    7.1827    6.4364    0.0000 O   0  0  0  0  0  0  0  0  0  0  0  0
    9.2815    5.9700    0.0000 C   0  0  0  0  0  0  0  0  0  0  0  0
    9.9811    3.6380    0.0000 C   0  0  0  0  0  0  0  0  0  0  0  0
    3.1249    4.1510    0.0000 N   0  0  0  0  0  0  0  0  0  0  0  0
   10.6341    6.3898    0.0000 C   0  0  0  0  0  0  0  0  0  0  0  0
   11.3337    4.0577    0.0000 C   0  0  0  0  0  0  0  0  0  0  0  0
    2.6119    5.4570    0.0000 C   0  0  0  0  0  0  0  0  0  0  0  0
   11.6602    5.4103    0.0000 C   0  0  0  0  0  0  0  0  0  0  0  0
    1.2127    5.6435    0.0000 C   0  0  0  0  0  0  0  0  0  0  0  0
    0.0000    5.1305    0.0000 C   0  0  0  0  0  0  0  0  0  0  0  0
    0.1399    6.4364    0.0000 C   0  0  0  0  0  0  0  0  0  0  0  0
  1  2  1  0  0  0  0 
  2  3  1  0  0  0  0 
  2  4  2  0  0  0  0 
  3  5  2  0  0  0  0 
  6  4  1  0  0  0  0 
  5  7  1  0  0  0  0 
  8  6  1  0  0  0  0 
  7  6  2  0  0  0  0 
  7  9  1  0  0  0  0 
 10  8  2  0  0  0  0 
  8 11  1  0  0  0  0 
  9 12  2  0  0  0  0 
 13 10  1  0  0  0  0 
 10 14  1  0  0  0  0 
 11 15  2  0  0  0  0 
 11 16  1  0  0  0  0 
 12 13  1  0  0  0  0 
 12 17  1  0  0  0  0 
 15 18  1  0  0  0  0 
 19 16  2  0  0  0  0 
 17 20  1  0  0  0  0 
 18 21  2  0  0  0  0 
 21 19  1  0  0  0  0 
 20 22  1  0  0  0  0 
 22 23  1  0  0  0  0 
 22 24  1  0  0  0  0 
 23 24  1  0  0  0  0 
M  CHG  1  10   1
M  CHG  1  14  -1
M  END
> <Name>
3H-1,4-Benzodiazepin-2-amine, 7-chloro-N-(cyclopropylmethyl)-5-phenyl-, 4-oxide

> <Source>
IndexNet2DMolFile

> <Tox>
1.888

> <CAS>
15687-07-7

$$$$

  CDK

 21 22  0  0  0  0  0  0  0  0999 V2000
    2.0869   -0.0667    0.0000 C   0  0  0  0  0  0  0  0  0  0  0  0
    1.3023    0.1883    0.0000 C   0  0  0  0  0  0  0  0  0  0  0  0
    2.0869   -0.8917    0.0000 C   0  0  0  0  0  0  0  0  0  0  0  0
    2.8013    0.3458    0.0000 C   0  0  0  0  0  0  0  0  0  0  0  0
    1.0473    0.9729    0.0000 O   0  0  0  0  0  0  0  0  0  0  0  0
    0.8173   -0.4792    0.0000 N   0  0  0  0  0  0  0  0  0  0  0  0
    1.3023   -1.1466    0.0000 C   0  0  0  0  0  0  0  0  0  0  0  0
    2.8013   -1.3042    0.0000 C   0  0  0  0  0  0  0  0  0  0  0  0
    3.5158   -0.0667    0.0000 C   0  0  0  0  0  0  0  0  0  0  0  0
   -0.0077   -0.4792    0.0000 C   0  0  0  0  0  0  0  0  0  0  0  0
    1.0473   -1.9312    0.0000 O   0  0  0  0  0  0  0  0  0  0  0  0
    3.5158   -0.8917    0.0000 C   0  0  0  0  0  0  0  0  0  0  0  0
   -0.8327   -0.4792    0.0000 S   0  0  0  0  0  0  0  0  0  0  0  0
   -1.2452    0.2353    0.0000 P   0  0  0  0  0  0  0  0  0  0  0  0
   -1.9596   -0.1772    0.0000 S   0  0  0  0  0  0  0  0  0  0  0  0
   -0.5307    0.6478    0.0000 O   0  0  0  0  0  0  0  0  0  0  0  0
   -1.6577    0.9498    0.0000 O   0  0  0  0  0  0  0  0  0  0  0  0
   -0.5307    1.4728    0.0000 C   0  0  0  0  0  0  0  0  0  0  0  0
   -2.0702    0.2353    0.0000 C   0  0  0  0  0  0  0  0  0  0  0  0
   -2.4827   -0.4792    0.0000 C   0  0  0  0  0  0  0  0  0  0  0  0
   -2.8952    0.2353    0.0000 C   0  0  0  0  0  0  0  0  0  0  0  0
  1  2  1  0  0  0  0 
  1  3  1  0  0  0  0 
  1  4  2  0  0  0  0 
  2  5  2  0  0  0  0 
  2  6  1  0  0  0  0 
  7  3  1  0  0  0  0 
  3  8  2  0  0  0  0 
  9  4  1  0  0  0  0 
  6 10  1  0  0  0  0 
  6  7  1  0  0  0  0 
  7 11  2  0  0  0  0 
  8 12  1  0  0  0  0 
 12  9  2  0  0  0  0 
 10 13  1  0  0  0  0 
 13 14  1  0  0  0  0 
 14 15  2  0  0  0  0 
 14 16  1  0  0  0  0 
 14 17  1  0  0  0  0 
 16 18  1  0  0  0  0 
 17 19  1  0  0  0  0 
 19 20  1  0  0  0  0 
 19 21  1  0  0  0  0 
M  END
> <Name>
Phosphorodithioic acid, S-((1,3-dihydro-1,3-dioxo-2H-isoindol-2-yl)methyl) O-methyl O-(1-methylethyl) ester

> <Source>
Smiles

> <Tox>
3.839

> <CAS>
15863-65-7

$$$$

  CDK

 16 15  0  0  0  0  0  0  0  0999 V2000
    4.0126   -0.0526    0.0000 C   0  0  0  0  0  0  0  0  0  0  0  0
    3.2117   -0.2507    0.0000 C   0  0  0  0  0  0  0  0  0  0  0  0
    2.4109   -0.4489    0.0000 O   0  0  0  0  0  0  0  0  0  0  0  0
    1.8388    0.1456    0.0000 C   0  0  0  0  0  0  0  0  0  0  0  0
    2.0677    0.9382    0.0000 O   0  0  0  0  0  0  0  0  0  0  0  0
    1.0380   -0.0526    0.0000 C   0  0  0  0  0  0  0  0  0  0  0  0
    0.2371   -0.2507    0.0000 C   0  0  0  0  0  0  0  0  0  0  0  0
   -0.5637   -0.4489    0.0000 C   0  0  0  0  0  0  0  0  0  0  0  0
   -1.3645   -0.6470    0.0000 Si  0  0  0  0  0  0  0  0  0  0  0  0
   -1.1664   -1.4479    0.0000 C   0  0  0  0  0  0  0  0  0  0  0  0
   -1.5627    0.1538    0.0000 O   0  0  0  0  0  0  0  0  0  0  0  0
   -2.1654   -0.8452    0.0000 O   0  0  0  0  0  0  0  0  0  0  0  0
   -0.9682    0.7258    0.0000 C   0  0  0  0  0  0  0  0  0  0  0  0
   -2.7374   -0.2507    0.0000 C   0  0  0  0  0  0  0  0  0  0  0  0
   -0.3738    1.2979    0.0000 C   0  0  0  0  0  0  0  0  0  0  0  0
   -3.3095    0.3438    0.0000 C   0  0  0  0  0  0  0  0  0  0  0  0
  1  2  1  0  0  0  0 
  2  3  1  0  0  0  0 
  3  4  1  0  0  0  0 
  4  5  2  0  0  0  0 
  4  6  1  0  0  0  0 
  6  7  1  0  0  0  0 
  7  8  1  0  0  0  0 
  8  9  1  0  0  0  0 
  9 10  1  0  0  0  0 
  9 11  1  0  0  0  0 
  9 12  1  0  0  0  0 
 11 13  1  0  0  0  0 
 12 14  1  0  0  0  0 
 13 15  1  0  0  0  0 
 14 16  1  0  0  0  0 
M  END
> <Name>
Silane, diethoxy((3-ethoxycarbonyl)propyl)methyl-

> <Source>
Smiles

> <Tox>
1.087

> <CAS>
16068-01-2

$$$$

  CDK

 11 11  0  0  0  0  0  0  0  0999 V2000
    4.3102   -1.1258    0.0000 C   0  0  0  0  0  0  0  0  0  0  0  0
    3.4104   -2.1150    0.0000 C   0  0  0  0  0  0  0  0  0  0  0  0
    2.3412   -1.3331    0.0000 C   0  0  0  0  0  0  0  0  0  0  0  0
    2.9959   -3.3822    0.0000 N   0  0  0  0  0  0  0  0  0  0  0  0
    4.7106   -2.3883    0.0000 C   0  0  0  0  0  0  0  0  0  0  0  0
    2.3412   -0.0000    0.0000 O   0  0  0  0  0  0  0  0  0  0  0  0
    1.2671   -2.1150    0.0000 N   0  0  0  0  0  0  0  0  0  0  0  0
    1.6675   -3.3822    0.0000 C   0  0  0  0  0  0  0  0  0  0  0  0
    3.7826   -4.4562    0.0000 Br  0  0  0  0  0  0  0  0  0  0  0  0
    0.0000   -1.7005    0.0000 Cl  0  0  0  0  0  0  0  0  0  0  0  0
    0.8950   -4.4562    0.0000 O   0  0  0  0  0  0  0  0  0  0  0  0
  1  2  1  0  0  0  0 
  2  3  1  0  0  0  0 
  2  4  1  0  0  0  0 
  2  5  1  0  0  0  0 
  3  6  2  0  0  0  0 
  3  7  1  0  0  0  0 
  8  4  1  0  0  0  0 
  4  9  1  0  0  0  0 
  7  8  1  0  0  0  0 
  7 10  1  0  0  0  0 
  8 11  2  0  0  0  0 
M  END
> <Name>
2,4-Imidazolidinedione, 1-bromo-3-chloro-5,5-dimethyl-

> <Source>
DSSTox2DMolFile

> <Tox>
2.240

> <CAS>
16079-88-2

$$$$

  CDK

 24 23  0  0  0  0  0  0  0  0999 V2000
   11.5104   -1.9922    0.0000 C   0  0  0  0  0  0  0  0  0  0  0  0
   11.5104   -0.6641    0.0000 O   0  0  0  0  0  0  0  0  0  0  0  0
   12.6725   -2.6563    0.0000 O   0  0  0  0  0  0  0  0  0  0  0  0
   10.3852   -2.6563    0.0000 O   0  0  0  0  0  0  0  0  0  0  0  0
   12.6725   -4.0028    0.0000 C   0  0  0  0  0  0  0  0  0  0  0  0
    9.2231   -1.9922    0.0000 O   0  0  0  0  0  0  0  0  0  0  0  0
   13.8347   -4.6484    0.0000 C   0  0  0  0  0  0  0  0  0  0  0  0
    8.0610   -2.6563    0.0000 C   0  0  0  0  0  0  0  0  0  0  0  0
   14.9783   -4.0028    0.0000 C   0  0  0  0  0  0  0  0  0  0  0  0
   13.8347   -5.9766    0.0000 C   0  0  0  0  0  0  0  0  0  0  0  0
    8.0610   -4.0028    0.0000 O   0  0  0  0  0  0  0  0  0  0  0  0
    6.9173   -1.9922    0.0000 O   0  0  0  0  0  0  0  0  0  0  0  0
   16.1404   -4.6484    0.0000 C   0  0  0  0  0  0  0  0  0  0  0  0
   14.9783   -6.6591    0.0000 C   0  0  0  0  0  0  0  0  0  0  0  0
    5.7552   -2.6563    0.0000 C   0  0  0  0  0  0  0  0  0  0  0  0
   17.2841   -4.0028    0.0000 C   0  0  0  0  0  0  0  0  0  0  0  0
    4.6116   -1.9922    0.0000 C   0  0  0  0  0  0  0  0  0  0  0  0
   18.4462   -4.6484    0.0000 C   0  0  0  0  0  0  0  0  0  0  0  0
    3.4494   -2.6563    0.0000 C   0  0  0  0  0  0  0  0  0  0  0  0
    4.6116   -0.6641    0.0000 C   0  0  0  0  0  0  0  0  0  0  0  0
    2.2873   -1.9922    0.0000 C   0  0  0  0  0  0  0  0  0  0  0  0
    3.4494   -0.0000    0.0000 C   0  0  0  0  0  0  0  0  0  0  0  0
    1.1621   -2.6563    0.0000 C   0  0  0  0  0  0  0  0  0  0  0  0
    0.0000   -1.9922    0.0000 C   0  0  0  0  0  0  0  0  0  0  0  0
  1  2  2  0  0  0  0 
  1  3  1  0  0  0  0 
  1  4  1  0  0  0  0 
  3  5  1  0  0  0  0 
  6  4  1  0  0  0  0 
  5  7  1  0  0  0  0 
  6  8  1  0  0  0  0 
  7  9  1  0  0  0  0 
  7 10  1  0  0  0  0 
  8 11  2  0  0  0  0 
  8 12  1  0  0  0  0 
  9 13  1  0  0  0  0 
 10 14  1  0  0  0  0 
 12 15  1  0  0  0  0 
 13 16  1  0  0  0  0 
 15 17  1  0  0  0  0 
 16 18  1  0  0  0  0 
 17 19  1  0  0  0  0 
 17 20  1  0  0  0  0 
 19 21  1  0  0  0  0 
 20 22  1  0  0  0  0 
 21 23  1  0  0  0  0 
 23 24  1  0  0  0  0 
M  END
> <Name>
Peroxydicarbonic acid, bis(2-ethylhexyl) ester

> <Source>
DSSTox2DMolFile

> <Tox>
2.531

> <CAS>
16111-62-9

$$$$

  CDK

 17 17  0  0  0  0  0  0  0  0999 V2000
    3.5118    1.5552    0.0000 C   0  0  0  0  0  0  0  0  0  0  0  0
    2.6088    2.0067    0.0000 N   0  0  0  0  0  0  0  0  0  0  0  0
    4.3145    2.0569    0.0000 O   0  0  0  0  0  0  0  0  0  0  0  0
    3.5118    0.5519    0.0000 O   0  0  0  0  0  0  0  0  0  0  0  0
    1.7057    1.5051    0.0000 C   0  0  0  0  0  0  0  0  0  0  0  0
    5.2175    1.5051    0.0000 C   0  0  0  0  0  0  0  0  0  0  0  0
    0.8529    2.0067    0.0000 C   0  0  0  0  0  0  0  0  0  0  0  0
    1.7057    0.5017    0.0000 C   0  0  0  0  0  0  0  0  0  0  0  0
    6.0704    2.0569    0.0000 C   0  0  0  0  0  0  0  0  0  0  0  0
    5.2175    0.5519    0.0000 C   0  0  0  0  0  0  0  0  0  0  0  0
    0.0000    1.5051    0.0000 C   0  0  0  0  0  0  0  0  0  0  0  0
    0.8529    0.0000    0.0000 C   0  0  0  0  0  0  0  0  0  0  0  0
    6.9233    1.5552    0.0000 N   0  0  0  0  0  0  0  0  0  0  0  0
    6.0704    3.0603    0.0000 O   0  0  0  0  0  0  0  0  0  0  0  0
    0.0000    0.5017    0.0000 C   0  0  0  0  0  0  0  0  0  0  0  0
    7.8263    2.0569    0.0000 C   0  0  0  0  0  0  0  0  0  0  0  0
    8.6792    1.5552    0.0000 C   0  0  0  0  0  0  0  0  0  0  0  0
  1  2  1  0  0  0  0 
  1  3  1  0  0  0  0 
  1  4  2  0  0  0  0 
  2  5  1  0  0  0  0 
  3  6  1  0  0  0  0 
  7  5  2  0  0  0  0 
  5  8  1  0  0  0  0 
  6  9  1  0  0  0  0 
  6 10  1  0  0  0  0 
 11  7  1  0  0  0  0 
  8 12  2  0  0  0  0 
  9 13  1  0  0  0  0 
  9 14  2  0  0  0  0 
 15 11  2  0  0  0  0 
 12 15  1  0  0  0  0 
 13 16  1  0  0  0  0 
 16 17  1  0  0  0  0 
M  END
> <Name>
Carbanilic acid, (1-ethylcarbamoyl)ethyl ester, D-(-)-

> <Source>
NIST2DMolFile

> <Tox>
1.332

> <CAS>
16118-49-3

$$$$

  CDK

 16 17  0  0  0  0  0  0  0  0999 V2000
    1.7023    1.5021    0.0000 N   0  0  0  0  0  0  0  0  0  0  0  0
    0.8011    2.0027    0.0000 C   0  0  0  0  0  0  0  0  0  0  0  0
    2.5535    2.0027    0.0000 S   0  0  0  0  0  0  0  0  0  0  0  0
    1.7023    0.5007    0.0000 C   0  0  0  0  0  0  0  0  0  0  0  0
    0.0000    1.5021    0.0000 C   0  0  0  0  0  0  0  0  0  0  0  0
    3.4047    1.5021    0.0000 S   0  0  0  0  0  0  0  0  0  0  0  0
    0.8011    0.0000    0.0000 C   0  0  0  0  0  0  0  0  0  0  0  0
    0.0000    0.5007    0.0000 O   0  0  0  0  0  0  0  0  0  0  0  0
    4.3059    2.0528    0.0000 S   0  0  0  0  0  0  0  0  0  0  0  0
    5.1571    1.5521    0.0000 S   0  0  0  0  0  0  0  0  0  0  0  0
    6.0082    2.0528    0.0000 N   0  0  0  0  0  0  0  0  0  0  0  0
    6.0082    3.0542    0.0000 C   0  0  0  0  0  0  0  0  0  0  0  0
    6.9095    1.5521    0.0000 C   0  0  0  0  0  0  0  0  0  0  0  0
    6.9095    3.5549    0.0000 C   0  0  0  0  0  0  0  0  0  0  0  0
    7.7606    2.0528    0.0000 C   0  0  0  0  0  0  0  0  0  0  0  0
    7.7606    3.0542    0.0000 O   0  0  0  0  0  0  0  0  0  0  0  0
  2  1  1  0  0  0  0 
  1  3  1  0  0  0  0 
  1  4  1  0  0  0  0 
  5  2  1  0  0  0  0 
  3  6  1  0  0  0  0 
  4  7  1  0  0  0  0 
  8  5  1  0  0  0  0 
  6  9  1  0  0  0  0 
  7  8  1  0  0  0  0 
  9 10  1  0  0  0  0 
 10 11  1  0  0  0  0 
 11 12  1  0  0  0  0 
 13 11  1  0  0  0  0 
 12 14  1  0  0  0  0 
 15 13  1  0  0  0  0 
 14 16  1  0  0  0  0 
 16 15  1  0  0  0  0 
M  END
> <Name>
Morpholine, 4,4'-tetrathiodi- (6CI,7CI,8CI)

> <Source>
NIST2DMolFile

> <Tox>
1.797

> <CAS>
16131-53-6

$$$$

  CDK

 21 20  0  0  0  0  0  0  0  0999 V2000
    0.3041    1.8731    0.7335 C   0  0  0  0  0  0  0  0  0  0  0  0
    1.2122    1.6355   -0.4478 C   0  0  0  0  0  0  0  0  0  0  0  0
    0.5963    2.0370    1.9016 O   0  0  0  0  0  0  0  0  0  0  0  0
   -1.0195    1.8710    0.3802 O   0  0  0  0  0  0  0  0  0  0  0  0
    2.5667    2.3064   -0.2872 C   0  0  0  0  0  0  0  0  0  0  0  0
   -1.9972    1.9446    1.3937 C   0  0  0  0  0  0  0  0  0  0  0  0
    3.4599    2.0336   -1.4896 C   0  0  0  0  0  0  0  0  0  0  0  0
    3.9434    0.5909   -1.5146 C   0  0  0  0  0  0  0  0  0  0  0  0
    4.9037    0.3076   -0.3694 C   0  0  0  0  0  0  0  0  0  0  0  0
    5.2667   -1.1663   -0.2590 C   0  0  0  0  0  0  0  0  0  0  0  0
    4.3135   -1.9664    0.6191 C   0  0  0  0  0  0  0  0  0  0  0  0
    2.9925   -2.1977   -0.0233 C   0  0  0  0  0  0  0  0  0  0  0  0
    1.8361   -1.9464    0.6029 C   0  0  0  0  0  0  0  0  0  0  0  0
    0.5473   -2.1786   -0.0246 C   0  0  0  0  0  0  0  0  0  0  0  0
   -0.5993   -1.8510    0.5918 C   0  0  0  0  0  0  0  0  0  0  0  0
   -1.8961   -2.0238   -0.0383 C   0  0  0  0  0  0  0  0  0  0  0  0
   -3.0029   -1.4910    0.4930 C   0  0  0  0  0  0  0  0  0  0  0  0
   -4.3446   -1.6030   -0.1355 C   0  0  0  0  0  0  0  0  0  0  0  0
   -4.9796   -0.2267   -0.2836 C   0  0  0  0  0  0  0  0  0  0  0  0
   -6.3641   -0.3202   -0.9038 C   0  0  0  0  0  0  0  0  0  0  0  0
   -6.9976    1.0446   -1.0513 C   0  0  0  0  0  0  0  0  0  0  0  0
  1  2  1  0  0  0  0 
  1  3  2  0  0  0  0 
  1  4  1  0  0  0  0 
  2  5  1  0  0  0  0 
  4  6  1  0  0  0  0 
  5  7  1  0  0  0  0 
  7  8  1  0  0  0  0 
  8  9  1  0  0  0  0 
  9 10  1  0  0  0  0 
 10 11  1  0  0  0  0 
 11 12  1  0  0  0  0 
 12 13  2  0  0  0  0 
 13 14  1  0  0  0  0 
 14 15  2  0  0  0  0 
 15 16  1  0  0  0  0 
 16 17  2  0  0  0  0 
 17 18  1  0  0  0  0 
 18 19  1  0  0  0  0 
 19 20  1  0  0  0  0 
 20 21  1  0  0  0  0 
M  END
> <Name>
9,11,13-Octadecatrienoic acid, methyl ester, (Z,E,E)-

> <Source>
DougDB3DMolFile

> <Tox>
1.767

> <CAS>
16195-77-0

$$$$

  CDK

 10 10  0  0  0  0  0  0  0  0999 V2000
    5.3206   -0.0000    0.0000 C   0  0  0  0  0  0  0  0  0  0  0  0
    5.9849   -1.1551    0.0000 C   0  0  0  0  0  0  0  0  0  0  0  0
    3.9919   -0.0000    0.0000 N   0  0  0  0  0  0  0  0  0  0  0  0
    5.3206   -2.3042    0.0000 C   0  0  0  0  0  0  0  0  0  0  0  0
    3.3276   -1.1551    0.0000 C   0  0  0  0  0  0  0  0  0  0  0  0
    3.9919   -2.3042    0.0000 C   0  0  0  0  0  0  0  0  0  0  0  0
    1.9930   -1.1551    0.0000 N   0  0  0  0  0  0  0  0  0  0  0  0
    1.3286   -2.3042    0.0000 N   0  0  0  0  0  0  0  0  0  0  0  0
    1.3286   -0.0000    0.0000 C   0  0  0  0  0  0  0  0  0  0  0  0
    0.0000   -2.3042    0.0000 O   0  0  0  0  0  0  0  0  0  0  0  0
  1  2  2  0  0  0  0 
  1  3  1  0  0  0  0 
  2  4  1  0  0  0  0 
  5  3  2  0  0  0  0 
  4  6  2  0  0  0  0 
  6  5  1  0  0  0  0 
  5  7  1  0  0  0  0 
  7  8  1  0  0  0  0 
  7  9  1  0  0  0  0 
  8 10  2  0  0  0  0 
M  END
> <Name>
2-Pyridinamine, N-methyl-N-nitroso- (9CI)

> <Source>
DSSTox2DMolFile

> <Tox>
3.359

> <CAS>
16219-98-0

$$$$

  CDK

  9  8  0  0  0  0  0  0  0  0999 V2000
    2.6588   -0.0000    0.0000 C   0  0  0  0  0  0  0  0  0  0  0  0
    1.9976   -1.1548    0.0000 C   0  0  0  0  0  0  0  0  0  0  0  0
    2.6588   -2.3049    0.0000 C   0  0  0  0  0  0  0  0  0  0  0  0
    1.9976   -3.4597    0.0000 N   0  0  0  0  0  0  0  0  0  0  0  0
    2.6588   -4.6098    0.0000 C   0  0  0  0  0  0  0  0  0  0  0  0
    0.6659   -3.4597    0.0000 N   0  0  0  0  0  0  0  0  0  0  0  0
    3.9905   -4.6098    0.0000 C   0  0  0  0  0  0  0  0  0  0  0  0
    0.0000   -2.3049    0.0000 O   0  0  0  0  0  0  0  0  0  0  0  0
    4.6563   -3.4597    0.0000 C   0  0  0  0  0  0  0  0  0  0  0  0
  1  2  2  0  0  0  0 
  2  3  1  0  0  0  0 
  3  4  1  0  0  0  0 
  4  5  1  0  0  0  0 
  4  6  1  0  0  0  0 
  5  7  1  0  0  0  0 
  6  8  2  0  0  0  0 
  7  9  2  0  0  0  0 
M  END
> <Name>
2-Propen-1-amine, N-nitroso-N-2-propenyl- (9CI)

> <Source>
DSSTox2DMolFile

> <Tox>
2.198

> <CAS>
16338-97-9

$$$$

  CDK

 18 19  0  0  0  0  0  0  0  0999 V2000
    0.0000    0.0000    0.0000 C   0  0  0  0  0  0  0  0  0  0  0  0
    0.8200   -1.2200   -0.1200 N   0  0  0  0  0  0  0  0  0  0  0  0
    2.0200   -1.1200   -0.2000 N   0  0  0  0  0  0  0  0  0  0  0  0
    0.2200   -2.4400   -0.1200 C   0  0  0  0  0  0  0  0  0  0  0  0
    2.5800    0.0200   -0.2600 O   0  0  0  0  0  0  0  0  0  0  0  0
    1.0000   -3.6200   -0.1200 C   0  0  0  0  0  0  0  0  0  0  0  0
   -1.1800   -2.5600   -0.1600 C   0  0  0  0  0  0  0  0  0  0  0  0
    0.4000   -4.8800   -0.1200 C   0  0  0  0  0  0  0  0  0  0  0  0
   -1.8000   -3.8200   -0.1800 C   0  0  0  0  0  0  0  0  0  0  0  0
   -1.0000   -4.9800   -0.1600 C   0  0  0  0  0  0  0  0  0  0  0  0
   -1.6000   -6.2200   -0.1600 N   0  0  0  0  0  0  0  0  0  0  0  0
   -0.9200   -7.2400   -0.1600 N   0  0  0  0  0  0  0  0  0  0  0  0
   -1.5000   -8.4800   -0.1600 C   0  0  0  0  0  0  0  0  0  0  0  0
   -2.9200   -8.5800   -0.2000 C   0  0  0  0  0  0  0  0  0  0  0  0
   -0.7200   -9.6400   -0.1600 C   0  0  0  0  0  0  0  0  0  0  0  0
   -3.5200   -9.8400   -0.2000 C   0  0  0  0  0  0  0  0  0  0  0  0
   -1.3400  -10.9000   -0.1600 C   0  0  0  0  0  0  0  0  0  0  0  0
   -2.7400  -11.0000   -0.2000 C   0  0  0  0  0  0  0  0  0  0  0  0
  1  2  1  0  0  0  0 
  2  3  1  0  0  0  0 
  2  4  1  0  0  0  0 
  3  5  2  0  0  0  0 
  4  6  2  0  0  0  0 
  4  7  1  0  0  0  0 
  6  8  1  0  0  0  0 
  9  7  2  0  0  0  0 
  8 10  2  0  0  0  0 
 10  9  1  0  0  0  0 
 10 11  1  0  0  0  0 
 11 12  2  0  0  0  0 
 12 13  1  0  0  0  0 
 13 14  2  0  0  0  0 
 13 15  1  0  0  0  0 
 14 16  1  0  0  0  0 
 17 15  2  0  0  0  0 
 16 18  2  0  0  0  0 
 18 17  1  0  0  0  0 
M  END
> <Name>
Aniline, N-methyl-N-nitroso-4-(phenylazo)-

> <Source>
NIH3DMolFile

> <Tox>
2.302

> <CAS>
16339-01-8

$$$$

  CDK

  8  7  0  0  0  0  0  0  0  0999 V2000
    2.5935    1.9950    0.0000 C   0  0  0  0  0  0  0  0  0  0  0  0
    1.7456    1.4962    0.0000 N   0  0  0  0  0  0  0  0  0  0  0  0
    2.5935    2.9925    0.0000 C   0  0  0  0  0  0  0  0  0  0  0  0
    3.4912    1.4962    0.0000 C   0  0  0  0  0  0  0  0  0  0  0  0
    1.7456    0.4987    0.0000 C   0  0  0  0  0  0  0  0  0  0  0  0
    0.8977    1.9950    0.0000 N   0  0  0  0  0  0  0  0  0  0  0  0
    0.8977    0.0000    0.0000 C   0  0  0  0  0  0  0  0  0  0  0  0
    0.0000    1.4962    0.0000 O   0  0  0  0  0  0  0  0  0  0  0  0
  1  2  1  0  0  0  0 
  1  3  1  0  0  0  0 
  1  4  1  0  0  0  0 
  2  5  1  0  0  0  0 
  2  6  1  0  0  0  0 
  5  7  1  0  0  0  0 
  6  8  2  0  0  0  0 
M  END
> <Name>
2-Propanamine, N-ethyl-N-nitroso- (9CI)

> <Source>
NIST2DMolFile

> <Tox>
2.024

> <CAS>
16339-04-1

$$$$

  CDK

 12 12  0  0  0  0  0  0  0  0999 V2000
    1.1746    0.6812    0.0000 N   0  0  0  0  0  0  0  0  0  0  0  0
    1.2578    1.5020    0.0000 N   0  0  0  0  0  0  0  0  0  0  0  0
    0.4617    0.2660    0.0000 C   0  0  0  0  0  0  0  0  0  0  0  0
    1.7898    0.1314    0.0000 C   0  0  0  0  0  0  0  0  0  0  0  0
    2.0103    1.8403    0.0000 O   0  0  0  0  0  0  0  0  0  0  0  0
   -0.3578    0.3608    0.0000 C   0  0  0  0  0  0  0  0  0  0  0  0
    0.6362   -0.5403    0.0000 C   0  0  0  0  0  0  0  0  0  0  0  0
    1.4570   -0.6235    0.0000 C   0  0  0  0  0  0  0  0  0  0  0  0
   -0.6855    1.1180    0.0000 O   0  0  0  0  0  0  0  0  0  0  0  0
   -0.8497   -0.3015    0.0000 O   0  0  0  0  0  0  0  0  0  0  0  0
   -1.6693   -0.2067    0.0000 C   0  0  0  0  0  0  0  0  0  0  0  0
   -2.4888   -0.1119    0.0000 C   0  0  0  0  0  0  0  0  0  0  0  0
  1  2  1  0  0  0  0 
  1  3  1  0  0  0  0 
  1  4  1  0  0  0  0 
  2  5  2  0  0  0  0 
  3  6  1  0  0  0  0 
  3  7  1  0  0  0  0 
  8  4  1  0  0  0  0 
  6  9  2  0  0  0  0 
  6 10  1  0  0  0  0 
  7  8  1  0  0  0  0 
 10 11  1  0  0  0  0 
 11 12  1  0  0  0  0 
M  END
> <Name>
Proline, N-nitroso-, ethyl ester

> <Source>
Smiles

> <Tox>
1.537

> <CAS>
16339-06-3

$$$$

  CDK

  7  6  0  0  0  0  0  0  0  0999 V2000
   -1.3545    1.3671    0.0000 O   0  0  0  0  0  0  0  0  0  0  0  0
   -0.5749    1.0971    0.0000 N   0  0  0  0  0  0  0  0  0  0  0  0
   -0.4190    0.2869    0.0000 N   0  0  0  0  0  0  0  0  0  0  0  0
   -1.0427   -0.2532    0.0000 C   0  0  0  0  0  0  0  0  0  0  0  0
    0.3605    0.0169    0.0000 N   0  0  0  0  0  0  0  0  0  0  0  0
    0.5165   -0.7933    0.0000 C   0  0  0  0  0  0  0  0  0  0  0  0
    0.9842    0.5570    0.0000 C   0  0  0  0  0  0  0  0  0  0  0  0
  1  2  2  0  0  0  0 
  2  3  1  0  0  0  0 
  3  4  1  0  0  0  0 
  3  5  1  0  0  0  0 
  5  6  1  0  0  0  0 
  5  7  1  0  0  0  0 
M  END
> <Name>
Hydrazine, trimethylnitroso- (6CI,8CI,9CI)

> <Source>
Smiles

> <Tox>
3.036

> <CAS>
16339-14-3

$$$$

  CDK

 15 16  0  0  0  0  0  0  0  0999 V2000
   -1.6154   -0.1773   -4.2602 O   0  0  0  0  0  0  0  0  0  0  0  0
   -1.2184   -0.8396   -3.2958 C   0  0  0  0  0  0  0  0  0  0  0  0
    0.0253   -0.6453   -2.6844 N   0  0  0  0  0  0  0  0  0  0  0  0
   -2.0195   -1.8293   -2.7692 N   0  0  0  0  0  0  0  0  0  0  0  0
    0.5630   -1.3921   -1.5377 C   0  0  0  0  0  0  0  0  0  0  0  0
    0.9251    0.3894   -3.2020 C   0  0  0  0  0  0  0  0  0  0  0  0
    0.9239   -0.4396   -0.3969 C   0  0  0  0  0  0  0  0  0  0  0  0
    1.2927    1.3881   -2.1059 C   0  0  0  0  0  0  0  0  0  0  0  0
    1.8812    0.6671   -0.8787 C   0  0  0  0  0  0  0  0  0  0  0  0
    2.2386    1.6352    0.2333 C   0  0  0  0  0  0  0  0  0  0  0  0
    1.4554    2.7679    0.4464 C   0  0  0  0  0  0  0  0  0  0  0  0
    3.3487    1.3888    1.0387 C   0  0  0  0  0  0  0  0  0  0  0  0
    1.7838    3.6579    1.4689 C   0  0  0  0  0  0  0  0  0  0  0  0
    3.6769    2.2789    2.0613 C   0  0  0  0  0  0  0  0  0  0  0  0
    2.8944    3.4134    2.2764 C   0  0  0  0  0  0  0  0  0  0  0  0
  1  2  2  0  0  0  0 
  3  2  1  0  0  0  0 
  4  2  1  0  0  0  0 
  3  5  1  0  0  0  0 
  3  6  1  0  0  0  0 
  7  5  1  0  0  0  0 
  8  6  1  0  0  0  0 
  9  7  1  0  0  0  0 
  9  8  1  0  0  0  0 
  9 10  1  0  0  0  0 
 10 11  2  0  0  0  0 
 10 12  1  0  0  0  0 
 11 13  1  0  0  0  0 
 12 14  2  0  0  0  0 
 13 15  2  0  0  0  0 
 14 15  1  0  0  0  0 
M  END
> <Name>
1-Piperidinecarboxamide, 4-phenyl-

> <Source>
Chemidplus3DMolFile

> <Tox>
2.413

> <CAS>
16568-66-4

$$$$

  CDK

 10 10  0  0  0  0  0  0  0  0999 V2000
    0.9617    0.0000    0.0000 C   0  0  0  0  0  0  0  0  0  0  0  0
    1.8728    0.4555    0.0000 C   0  0  0  0  0  0  0  0  0  0  0  0
    0.0000    0.4555    0.0000 C   0  0  0  0  0  0  0  0  0  0  0  0
    2.7838    0.0000    0.0000 C   0  0  0  0  0  0  0  0  0  0  0  0
    1.8728    1.3666    0.0000 C   0  0  0  0  0  0  0  0  0  0  0  0
    0.0000    1.3666    0.0000 C   0  0  0  0  0  0  0  0  0  0  0  0
    3.6949    0.4555    0.0000 N   0  0  0  0  0  0  0  0  0  0  0  0
    0.9617    1.8221    0.0000 C   0  0  0  0  0  0  0  0  0  0  0  0
    4.6566    0.0000    0.0000 C   0  0  0  0  0  0  0  0  0  0  0  0
    3.6949    1.3666    0.0000 C   0  0  0  0  0  0  0  0  0  0  0  0
  2  1  1  0  0  0  0 
  1  3  1  0  0  0  0 
  2  4  1  0  0  0  0 
  5  2  1  0  0  0  0 
  3  6  1  0  0  0  0 
  4  7  1  0  0  0  0 
  8  5  1  0  0  0  0 
  6  8  1  0  0  0  0 
  7  9  1  0  0  0  0 
  7 10  1  0  0  0  0 
M  END
> <Name>
Cyclohexanemethylamine, N,N-dimethyl- (6CI,7CI,8CI)

> <Source>
NIST2DMolFile

> <Tox>
2.060

> <CAS>
16607-80-0

$$$$

  CDK

 16 16  0  0  0  0  0  0  0  0999 V2000
   -1.3640   -3.1125    0.0000 C   0  0  0  0  0  0  0  0  0  0  0  0
   -0.6495   -2.7000    0.0000 S   0  0  0  0  0  0  0  0  0  0  0  0
   -0.6495   -1.8750    0.0000 C   0  0  0  0  0  0  0  0  0  0  0  0
   -0.6495   -1.0500    0.0000 C   0  0  0  0  0  0  0  0  0  0  0  0
   -0.6495   -0.2250    0.0000 C   0  0  0  0  0  0  0  0  0  0  0  0
   -0.6495    0.6000    0.0000 C   0  0  0  0  0  0  0  0  0  0  0  0
    0.0650    1.0125    0.0000 C   0  0  0  0  0  0  0  0  0  0  0  0
   -1.3640    1.0125    0.0000 C   0  0  0  0  0  0  0  0  0  0  0  0
    0.7794    0.6000    0.0000 O   0  0  0  0  0  0  0  0  0  0  0  0
    0.0650    1.8375    0.0000 C   0  0  0  0  0  0  0  0  0  0  0  0
   -1.3640    1.8375    0.0000 C   0  0  0  0  0  0  0  0  0  0  0  0
    1.4939    1.0125    0.0000 C   0  0  0  0  0  0  0  0  0  0  0  0
   -0.6495    2.2500    0.0000 C   0  0  0  0  0  0  0  0  0  0  0  0
    1.4939    1.8375    0.0000 O   0  0  0  0  0  0  0  0  0  0  0  0
    2.2084    0.6000    0.0000 N   0  0  0  0  0  0  0  0  0  0  0  0
    2.9228    1.0125    0.0000 C   0  0  0  0  0  0  0  0  0  0  0  0
  1  2  1  0  0  0  0 
  2  3  1  0  0  0  0 
  3  4  1  0  0  0  0 
  4  5  1  0  0  0  0 
  5  6  1  0  0  0  0 
  6  7  1  0  0  0  0 
  6  8  2  0  0  0  0 
  7  9  1  0  0  0  0 
  7 10  2  0  0  0  0 
 11  8  1  0  0  0  0 
  9 12  1  0  0  0  0 
 10 13  1  0  0  0  0 
 13 11  2  0  0  0  0 
 12 14  2  0  0  0  0 
 12 15  1  0  0  0  0 
 15 16  1  0  0  0  0 
M  END
> <Name>
Carbamic acid, methyl-, o-(3-(methylthio)propyl)phenyl ester

> <Source>
Smiles

> <Tox>
3.037

> <CAS>
16637-86-8

$$$$

  CDK

 10 10  0  0  0  0  0  0  0  0999 V2000
   -0.0412   -1.4943    0.0000 C   0  0  0  0  0  0  0  0  0  0  0  0
    0.6733   -1.0818    0.0000 C   0  0  0  0  0  0  0  0  0  0  0  0
   -0.7556   -1.0818    0.0000 C   0  0  0  0  0  0  0  0  0  0  0  0
    0.6733   -0.2568    0.0000 C   0  0  0  0  0  0  0  0  0  0  0  0
   -0.7556   -0.2568    0.0000 C   0  0  0  0  0  0  0  0  0  0  0  0
   -0.0412    0.1557    0.0000 C   0  0  0  0  0  0  0  0  0  0  0  0
   -0.2850    0.9438    0.0000 C   0  0  0  0  0  0  0  0  0  0  0  0
    0.2026    0.9438    0.0000 C   0  0  0  0  0  0  0  0  0  0  0  0
   -1.0894    1.1268    0.0000 O   0  0  0  0  0  0  0  0  0  0  0  0
    0.2757    1.5491    0.0000 O   0  0  0  0  0  0  0  0  0  0  0  0
  1  2  2  0  0  0  0 
  1  3  1  0  0  0  0 
  2  4  1  0  0  0  0 
  5  3  1  0  0  0  0 
  4  6  1  0  0  0  0 
  6  5  1  0  0  0  0 
  6  7  1  0  0  0  0 
  6  8  1  0  0  0  0 
  7  9  2  0  0  0  0 
  7 10  1  0  0  0  0 
M  END
> <Name>
3-Cyclohexene-1-carboxylic acid, 1-methyl-

> <Source>
Smiles

> <Tox>
1.816

> <CAS>
16646-42-7

$$$$

  CDK

 11 10  0  0  0  0  0  0  0  0999 V2000
   -2.0553    0.1559    0.1509 C   0  0  0  0  0  0  0  0  0  0  0  0
   -3.0199   -0.7101   -0.5747 C   0  0  0  0  0  0  0  0  0  0  0  0
   -1.9231    0.1805    1.3691 O   0  0  0  0  0  0  0  0  0  0  0  0
   -1.2938    1.0516   -0.6403 N   0  0  0  0  0  0  0  0  0  0  0  0
   -3.6992   -1.6750    0.0380 C   0  0  0  0  0  0  0  0  0  0  0  0
   -0.1688    1.8440   -0.1032 C   0  0  0  0  0  0  0  0  0  0  0  0
    1.0522    1.2487   -0.4698 O   0  0  0  0  0  0  0  0  0  0  0  0
    1.5887    0.3362    0.4845 C   0  0  0  0  0  0  0  0  0  0  0  0
    2.8425   -0.2976   -0.1345 C   0  0  0  0  0  0  0  0  0  0  0  0
    3.6887   -0.9155    0.9670 C   0  0  0  0  0  0  0  0  0  0  0  0
    2.4730   -1.3489   -1.1676 C   0  0  0  0  0  0  0  0  0  0  0  0
  1  2  1  0  0  0  0 
  1  3  2  0  0  0  0 
  1  4  1  0  0  0  0 
  2  5  2  0  0  0  0 
  4  6  1  0  0  0  0 
  6  7  1  0  0  0  0 
  7  8  1  0  0  0  0 
  8  9  1  0  0  0  0 
  9 10  1  0  0  0  0 
  9 11  1  0  0  0  0 
M  END
> <Name>
2-Propenamide, N-((2-methylpropoxy)methyl)-

> <Source>
DougDB3DMolFile

> <Tox>
2.201

> <CAS>
16669-59-3

$$$$

  CDK

 15 16  0  0  0  0  0  0  0  0999 V2000
   -0.5982    0.5265    0.0000 C   0  0  0  0  0  0  0  0  0  0  0  0
   -1.4938   -0.5416    0.0000 C   0  0  0  0  0  0  0  0  0  0  0  0
    0.8103    0.2653    0.0000 C   0  0  0  0  0  0  0  0  0  0  0  0
   -1.1610    1.8868    0.0000 C   0  0  0  0  0  0  0  0  0  0  0  0
   -1.0095   -1.8981    0.0000 C   0  0  0  0  0  0  0  0  0  0  0  0
   -2.8437   -0.4125    0.0000 O   0  0  0  0  0  0  0  0  0  0  0  0
    1.2668   -1.0692    0.0000 C   0  0  0  0  0  0  0  0  0  0  0  0
    1.7710    1.3100    0.0000 C   0  0  0  0  0  0  0  0  0  0  0  0
   -2.3623    2.1664    0.0000 O   0  0  0  0  0  0  0  0  0  0  0  0
   -0.3505    2.9644    0.0000 O   0  0  0  0  0  0  0  0  0  0  0  0
    0.3412   -2.1488    0.0000 C   0  0  0  0  0  0  0  0  0  0  0  0
   -1.8350   -2.9913    0.0000 O   0  0  0  0  0  0  0  0  0  0  0  0
    2.6614   -1.3346    0.0000 C   0  0  0  0  0  0  0  0  0  0  0  0
    3.1123    1.0314    0.0000 C   0  0  0  0  0  0  0  0  0  0  0  0
    3.5648   -0.3050    0.0000 C   0  0  0  0  0  0  0  0  0  0  0  0
  1  2  2  0  0  0  0 
  1  3  1  0  0  0  0 
  1  4  1  0  0  0  0 
  2  5  1  0  0  0  0 
  2  6  1  0  0  0  0 
  7  3  1  0  0  0  0 
  8  3  2  0  0  0  0 
  4  9  2  0  0  0  0 
  4 10  1  0  0  0  0 
  5 11  2  0  0  0  0 
  5 12  1  0  0  0  0 
 11  7  1  0  0  0  0 
  7 13  2  0  0  0  0 
 14  8  1  0  0  0  0 
 13 15  1  0  0  0  0 
 15 14  2  0  0  0  0 
M  END
> <Name>
1-Naphthoic acid, 2,3-dihydroxy-

> <Source>
DougDB3DMolFile

> <Tox>
0.921

> <CAS>
16715-77-8

$$$$

  CDK

 21 20  0  0  0  0  0  0  0  0999 V2000
    0.6588    2.2297    0.0000 F   0  0  0  0  0  0  0  0  0  0  0  0
    1.5202    1.7229    0.0000 C   0  0  0  0  0  0  0  0  0  0  0  0
    2.4324    1.2669    0.0000 C   0  0  0  0  0  0  0  0  0  0  0  0
    1.0135    0.9121    0.0000 N   0  0  0  0  0  0  0  0  0  0  0  0
    2.0270    2.5844    0.0000 N   0  0  0  0  0  0  0  0  0  0  0  0
    3.2938    1.6722    0.0000 O   0  0  0  0  0  0  0  0  0  0  0  0
    0.0000    0.9121    0.0000 O   0  0  0  0  0  0  0  0  0  0  0  0
    1.5202    0.0507    0.0000 O   0  0  0  0  0  0  0  0  0  0  0  0
    3.0911    2.5844    0.0000 O   0  0  0  0  0  0  0  0  0  0  0  0
    1.5202    3.4965    0.0000 O   0  0  0  0  0  0  0  0  0  0  0  0
    4.1553    1.2669    0.0000 C   0  0  0  0  0  0  0  0  0  0  0  0
    4.9154    1.7229    0.0000 O   0  0  0  0  0  0  0  0  0  0  0  0
    5.8275    1.2669    0.0000 C   0  0  0  0  0  0  0  0  0  0  0  0
    6.6890    1.7229    0.0000 C   0  0  0  0  0  0  0  0  0  0  0  0
    7.6011    2.2297    0.0000 F   0  0  0  0  0  0  0  0  0  0  0  0
    6.1822    2.5844    0.0000 N   0  0  0  0  0  0  0  0  0  0  0  0
    7.1957    0.9121    0.0000 N   0  0  0  0  0  0  0  0  0  0  0  0
    6.6890    3.4458    0.0000 O   0  0  0  0  0  0  0  0  0  0  0  0
    5.1688    2.5844    0.0000 O   0  0  0  0  0  0  0  0  0  0  0  0
    6.6890    0.0000    0.0000 O   0  0  0  0  0  0  0  0  0  0  0  0
    8.2599    0.9121    0.0000 O   0  0  0  0  0  0  0  0  0  0  0  0
  1  2  1  0  0  0  0 
  2  3  1  0  0  0  0 
  2  4  1  0  0  0  0 
  2  5  1  0  0  0  0 
  3  6  1  0  0  0  0 
  4  7  2  0  0  0  0 
  4  8  2  0  0  0  0 
  5  9  2  0  0  0  0 
  5 10  2  0  0  0  0 
  6 11  1  0  0  0  0 
 12 11  1  0  0  0  0 
 12 13  1  0  0  0  0 
 13 14  1  0  0  0  0 
 15 14  1  0  0  0  0 
 14 16  1  0  0  0  0 
 14 17  1  0  0  0  0 
 16 18  2  0  0  0  0 
 16 19  2  0  0  0  0 
 17 20  2  0  0  0  0 
 17 21  2  0  0  0  0 
M  END
> <Name>
Ethane, 1,1'-(methylenebis(oxy))bis(2-fluoro-2,2-dinitro-

> <Source>
NIST2DMolFile

> <Tox>
2.125

> <CAS>
17003-79-1

$$$$

  CDK

 16 16  0  0  0  0  0  0  0  0999 V2000
   -3.2281   -0.4530   -0.2457 C   0  0  0  0  0  0  0  0  0  0  0  0
   -3.1357   -1.9675   -0.0978 C   0  0  0  0  0  0  0  0  0  0  0  0
   -2.0115    0.1494    0.3512 N   0  0  0  0  0  0  0  0  0  0  0  0
   -2.4452   -2.6986   -1.2123 C   0  0  0  0  0  0  0  0  0  0  0  0
   -3.6045   -2.5338    0.8706 O   0  0  0  0  0  0  0  0  0  0  0  0
   -1.7465    1.5760   -0.0429 C   0  0  0  0  0  0  0  0  0  0  0  0
   -0.4764    2.0673    0.6946 C   0  0  0  0  0  0  0  0  0  0  0  0
   -2.9023    2.5075    0.3578 C   0  0  0  0  0  0  0  0  0  0  0  0
   -1.5473    1.6572   -1.5583 C   0  0  0  0  0  0  0  0  0  0  0  0
    0.7496    1.2439    0.4617 C   0  0  0  0  0  0  0  0  0  0  0  0
    1.6103    1.5476   -0.5963 C   0  0  0  0  0  0  0  0  0  0  0  0
    1.0631    0.1875    1.3206 C   0  0  0  0  0  0  0  0  0  0  0  0
    2.7638    0.8009   -0.8026 C   0  0  0  0  0  0  0  0  0  0  0  0
    2.2143   -0.5643    1.1203 C   0  0  0  0  0  0  0  0  0  0  0  0
    3.0582   -0.2535    0.0576 C   0  0  0  0  0  0  0  0  0  0  0  0
    4.4565   -1.1629   -0.1892 Cl  0  0  0  0  0  0  0  0  0  0  0  0
  1  2  1  0  0  0  0 
  1  3  1  0  0  0  0 
  2  4  1  0  0  0  0 
  2  5  2  0  0  0  0 
  3  6  1  0  0  0  0 
  6  7  1  0  0  0  0 
  6  8  1  0  0  0  0 
  6  9  1  0  0  0  0 
  7 10  1  0  0  0  0 
 10 11  1  0  0  0  0 
 10 12  2  0  0  0  0 
 11 13  2  0  0  0  0 
 14 12  1  0  0  0  0 
 13 15  1  0  0  0  0 
 15 14  2  0  0  0  0 
 15 16  1  0  0  0  0 
M  END
> <Name>
2-Propanone, 1-(p-chlorophenyl-tert-butyl)amino-

> <Source>
DougDB3DMolFile

> <Tox>
2.982

> <CAS>
17191-84-3

$$$$

  CDK

 29 32  0  0  0  0  0  0  0  0999 V2000
    0.0000   12.1266    0.0000 C   0  0  0  0  0  0  0  0  0  0  0  0
    0.6530   10.9139    0.0000 O   0  0  0  0  0  0  0  0  0  0  0  0
    2.0522   10.9139    0.0000 C   0  0  0  0  0  0  0  0  0  0  0  0
    2.7518   12.1266    0.0000 C   0  0  0  0  0  0  0  0  0  0  0  0
    2.7518    9.7013    0.0000 C   0  0  0  0  0  0  0  0  0  0  0  0
    2.2854   13.4325    0.0000 C   0  0  0  0  0  0  0  0  0  0  0  0
    4.1510   12.1266    0.0000 C   0  0  0  0  0  0  0  0  0  0  0  0
    2.0522    8.4886    0.0000 C   0  0  0  0  0  0  0  0  0  0  0  0
    4.1510    9.7013    0.0000 C   0  0  0  0  0  0  0  0  0  0  0  0
    3.4514   14.2254    0.0000 C   0  0  0  0  0  0  0  0  0  0  0  0
    4.5708   13.4325    0.0000 O   0  0  0  0  0  0  0  0  0  0  0  0
    4.8506   10.9139    0.0000 C   0  0  0  0  0  0  0  0  0  0  0  0
    2.7518    7.2760    0.0000 C   0  0  0  0  0  0  0  0  0  0  0  0
    0.6530    8.4886    0.0000 O   0  0  0  0  0  0  0  0  0  0  0  0
    4.8506    8.4886    0.0000 O   0  0  0  0  0  0  0  0  0  0  0  0
    4.1510    7.2760    0.0000 C   0  0  0  0  0  0  0  0  0  0  0  0
    4.8506    6.0633    0.0000 C   0  0  0  0  0  0  0  0  0  0  0  0
    4.1510    4.8506    0.0000 O   0  0  0  0  0  0  0  0  0  0  0  0
    4.8506    3.6380    0.0000 C   0  0  0  0  0  0  0  0  0  0  0  0
    6.2499    3.6380    0.0000 O   0  0  0  0  0  0  0  0  0  0  0  0
    4.1510    2.4253    0.0000 C   0  0  0  0  0  0  0  0  0  0  0  0
    6.9495    2.4253    0.0000 C   0  0  0  0  0  0  0  0  0  0  0  0
    4.8506    1.2127    0.0000 C   0  0  0  0  0  0  0  0  0  0  0  0
    2.7518    2.4253    0.0000 O   0  0  0  0  0  0  0  0  0  0  0  0
    8.3487    2.4253    0.0000 C   0  0  0  0  0  0  0  0  0  0  0  0
    6.2499    1.2127    0.0000 C   0  0  0  0  0  0  0  0  0  0  0  0
    4.1510    0.0000    0.0000 O   0  0  0  0  0  0  0  0  0  0  0  0
    9.0483    1.2127    0.0000 O   0  0  0  0  0  0  0  0  0  0  0  0
    6.9495    0.0000    0.0000 O   0  0  0  0  0  0  0  0  0  0  0  0
  1  2  1  0  0  0  0 
  2  3  1  0  0  0  0 
  3  4  2  0  0  0  0 
  3  5  1  0  0  0  0 
  4  6  1  0  0  0  0 
  4  7  1  0  0  0  0 
  8  5  1  0  0  0  0 
  9  5  2  0  0  0  0 
  6 10  2  0  0  0  0 
 11  7  1  0  0  0  0 
  7 12  2  0  0  0  0 
 13  8  1  0  0  0  0 
  8 14  2  0  0  0  0 
 12  9  1  0  0  0  0 
  9 15  1  0  0  0  0 
 10 11  1  0  0  0  0 
 16 13  2  0  0  0  0 
 15 16  1  0  0  0  0 
 16 17  1  0  0  0  0 
 17 18  1  0  0  0  0 
 18 19  1  0  0  0  0 
 19 20  1  0  0  0  0 
 19 21  1  0  0  0  0 
 20 22  1  0  0  0  0 
 23 21  1  0  0  0  0 
 21 24  1  0  0  0  0 
 22 25  1  0  0  0  0 
 22 26  1  0  0  0  0 
 26 23  1  0  0  0  0 
 23 27  1  0  0  0  0 
 25 28  1  0  0  0  0 
 26 29  1  0  0  0  0 
M  END
> <Name>
5H-Furo(3,2-g)(1)benzopyran-5-one, 7-((beta-D-glucopyranosyloxy)methyl)-4-methoxy- (9CI)

> <Source>
IndexNet2DMolFile

> <Tox>
2.444

> <CAS>
17226-75-4

$$$$

  CDK

  9  9  0  0  0  0  0  0  0  0999 V2000
   -1.6922   -0.0001   -0.3029 C   0  0  0  0  0  0  0  0  0  0  0  0
   -2.3144   -1.1675    0.2067 O   0  0  0  0  0  0  0  0  0  0  0  0
   -0.2271   -0.0039    0.1886 C   0  0  0  0  0  0  0  0  0  0  0  0
   -2.4218    1.2607    0.1654 C   0  0  0  0  0  0  0  0  0  0  0  0
    0.4954   -1.2950   -0.1986 C   0  0  0  0  0  0  0  0  0  0  0  0
    0.5271    1.1897   -0.3984 C   0  0  0  0  0  0  0  0  0  0  0  0
    1.9665   -1.2053   -0.0003 C   0  0  0  0  0  0  0  0  0  0  0  0
    1.9335    1.2672    0.1719 C   0  0  0  0  0  0  0  0  0  0  0  0
    2.6181   -0.0526    0.1610 C   0  0  0  0  0  0  0  0  0  0  0  0
  1  2  1  0  0  0  0 
  1  3  1  0  0  0  0 
  1  4  1  0  0  0  0 
  3  5  1  0  0  0  0 
  3  6  1  0  0  0  0 
  5  7  1  0  0  0  0 
  8  6  1  0  0  0  0 
  7  9  2  0  0  0  0 
  9  8  1  0  0  0  0 
M  END
> <Name>
3-Cyclohexene-1-methanol, alpha-methyl- (6CI,8CI,9CI)

> <Source>
DougDB3DMolFile

> <Tox>
1.946

> <CAS>
17264-01-6

$$$$

  CDK

  7  6  0  0  0  0  0  0  0  0999 V2000
    2.0006   -1.3282    0.0000 P   0  0  0  0  0  0  0  0  0  0  0  0
    0.6724   -1.3282    0.0000 O   0  0  0  0  0  0  0  0  0  0  0  0
    2.0006   -2.6563    0.0000 O   0  0  0  0  0  0  0  0  0  0  0  0
    3.3287   -1.3282    0.0000 S   0  0  0  0  0  0  0  0  0  0  0  0
    2.0006   -0.0000    0.0000 N   0  0  0  0  0  0  0  0  0  0  0  0
    0.0000   -0.1764    0.0000 C   0  0  0  0  0  0  0  0  0  0  0  0
    0.8488   -3.3287    0.0000 C   0  0  0  0  0  0  0  0  0  0  0  0
  1  2  1  0  0  0  0 
  1  3  1  0  0  0  0 
  1  4  2  0  0  0  0 
  1  5  1  0  0  0  0 
  2  6  1  0  0  0  0 
  3  7  1  0  0  0  0 
M  END
> <Name>
Phosphoramidothioic acid, O,O-dimethyl ester

> <Source>
DSSTox2DMolFile

> <Tox>
2.537

> <CAS>
17321-47-0

$$$$

  CDK

 20 22  0  0  0  0  0  0  0  0999 V2000
    0.6055   -0.1711    7.3415 O   0  0  0  0  0  0  0  0  0  0  0  0
    1.1865   -0.5164    6.3257 C   0  0  0  0  0  0  0  0  0  0  0  0
    2.4158   -1.1758    6.1964 N   0  0  0  0  0  0  0  0  0  0  0  0
    0.6982   -0.3321    4.9101 C   0  0  0  0  0  0  0  0  0  0  0  0
    2.7725   -1.4164    4.8916 N   0  0  0  0  0  0  0  0  0  0  0  0
    3.2592   -1.5800    7.2188 C   0  0  0  0  0  0  0  0  0  0  0  0
    1.8333   -0.9446    4.1336 C   0  0  0  0  0  0  0  0  0  0  0  0
   -0.6368   -0.9475    4.6580 C   0  0  0  0  0  0  0  0  0  0  0  0
    2.9164   -1.3399    8.5545 C   0  0  0  0  0  0  0  0  0  0  0  0
    4.4622   -2.2332    6.9267 C   0  0  0  0  0  0  0  0  0  0  0  0
    1.8509   -0.9767    2.6799 C   0  0  0  0  0  0  0  0  0  0  0  0
   -0.8244   -1.8453    3.8437 O   0  0  0  0  0  0  0  0  0  0  0  0
    3.7650   -1.7471    9.5839 C   0  0  0  0  0  0  0  0  0  0  0  0
    5.3108   -2.6405    7.9562 C   0  0  0  0  0  0  0  0  0  0  0  0
    1.2168    0.0305    1.9523 C   0  0  0  0  0  0  0  0  0  0  0  0
    2.5022   -2.0144    2.0129 C   0  0  0  0  0  0  0  0  0  0  0  0
    4.9621   -2.3974    9.2848 C   0  0  0  0  0  0  0  0  0  0  0  0
    1.2338   -0.0001    0.5579 C   0  0  0  0  0  0  0  0  0  0  0  0
    2.5192   -2.0449    0.6185 C   0  0  0  0  0  0  0  0  0  0  0  0
    1.8850   -1.0377   -0.1090 C   0  0  0  0  0  0  0  0  0  0  0  0
  1  2  2  0  0  0  0 
  3  2  1  0  0  0  0 
  4  2  1  0  0  0  0 
  3  5  1  0  0  0  0 
  3  6  1  0  0  0  0 
  4  7  1  0  0  0  0 
  4  8  1  0  0  0  0 
  5  7  2  0  0  0  0 
  6  9  2  0  0  0  0 
  6 10  1  0  0  0  0 
  7 11  1  0  0  0  0 
 12  8  2  0  0  0  0 
  9 13  1  0  0  0  0 
 10 14  2  0  0  0  0 
 11 15  2  0  0  0  0 
 11 16  1  0  0  0  0 
 13 17  2  0  0  0  0 
 14 17  1  0  0  0  0 
 15 18  1  0  0  0  0 
 16 19  2  0  0  0  0 
 18 20  2  0  0  0  0 
 19 20  1  0  0  0  0 
M  END
> <Name>
2-Pyrazolin-5-one, 1,3-diphenyl-4-formyl-

> <Source>
Chemidplus3DMolFile

> <Tox>
2.525

> <CAS>
17364-40-8

$$$$

  CDK

 20 19  0  0  0  0  0  0  0  0999 V2000
   -4.3247   -0.0406   -4.5542 S   0  0  0  0  0  0  0  0  0  0  0  0
   -4.6345   -0.9755   -6.4388 P   0  0  0  0  0  0  0  0  0  0  0  0
   -4.4781   -1.3786   -3.3208 C   0  0  0  0  0  0  0  0  0  0  0  0
   -2.8727   -2.1141   -6.8150 S   0  0  0  0  0  0  0  0  0  0  0  0
   -6.3638   -1.8615   -6.7239 S   0  0  0  0  0  0  0  0  0  0  0  0
   -4.4605    0.4379   -7.5792 C   0  0  0  0  0  0  0  0  0  0  0  0
   -3.7773   -1.0124   -2.0101 C   0  0  0  0  0  0  0  0  0  0  0  0
   -5.9463   -1.6597   -3.0597 C   0  0  0  0  0  0  0  0  0  0  0  0
   -2.9264   -2.5733   -8.5583 C   0  0  0  0  0  0  0  0  0  0  0  0
   -2.2734   -1.1836   -2.0634 C   0  0  0  0  0  0  0  0  0  0  0  0
   -6.1022   -2.9922   -2.7917 O   0  0  0  0  0  0  0  0  0  0  0  0
   -6.8430   -0.8266   -3.0574 O   0  0  0  0  0  0  0  0  0  0  0  0
   -1.6994   -3.3976   -8.9316 C   0  0  0  0  0  0  0  0  0  0  0  0
   -1.7556   -0.9396   -0.8227 O   0  0  0  0  0  0  0  0  0  0  0  0
   -1.6350   -1.5111   -3.0542 O   0  0  0  0  0  0  0  0  0  0  0  0
   -7.4372   -3.4092   -2.4882 C   0  0  0  0  0  0  0  0  0  0  0  0
   -1.7331   -3.7960  -10.3999 C   0  0  0  0  0  0  0  0  0  0  0  0
   -0.3371   -1.0896   -0.7067 C   0  0  0  0  0  0  0  0  0  0  0  0
   -7.4392   -4.8987   -2.2180 C   0  0  0  0  0  0  0  0  0  0  0  0
    0.0758   -0.7866    0.7179 C   0  0  0  0  0  0  0  0  0  0  0  0
  1  2  1  0  0  0  0 
  1  3  1  0  0  0  0 
  4  2  1  0  0  0  0 
  5  2  2  0  0  0  0 
  2  6  1  0  0  0  0 
  3  7  1  0  0  0  0 
  3  8  1  0  0  0  0 
  4  9  1  0  0  0  0 
  7 10  1  0  0  0  0 
 11  8  1  0  0  0  0 
 12  8  2  0  0  0  0 
  9 13  1  0  0  0  0 
 14 10  1  0  0  0  0 
 15 10  2  0  0  0  0 
 11 16  1  0  0  0  0 
 13 17  1  0  0  0  0 
 14 18  1  0  0  0  0 
 16 19  1  0  0  0  0 
 18 20  1  0  0  0  0 
M  END
> <Name>
Succinic acid, mercapto-, diethyl ester, propyl methylphosphonotrithioate

> <Source>
Chemidplus3DMolFile

> <Tox>
2.714

> <CAS>
17581-48-5

$$$$

  CDK

 27 29  0  0  0  0  0  0  0  0999 V2000
    0.0000   -3.5974    0.0000 C   0  0  0  0  0  0  0  0  0  0  0  0
    0.9467   -2.6507    0.0000 C   0  0  0  0  0  0  0  0  0  0  0  0
    0.4165   -4.8849    0.0000 C   0  0  0  0  0  0  0  0  0  0  0  0
    2.2089   -2.9158    0.0000 C   0  0  0  0  0  0  0  0  0  0  0  0
    1.6914   -5.1626    0.0000 C   0  0  0  0  0  0  0  0  0  0  0  0
    3.1430   -1.9691    0.0000 F   0  0  0  0  0  0  0  0  0  0  0  0
    2.6381   -4.2159    0.0000 C   0  0  0  0  0  0  0  0  0  0  0  0
    3.9130   -4.4936    0.0000 C   0  0  0  0  0  0  0  0  0  0  0  0
    4.2033   -5.7937    0.0000 N   0  0  0  0  0  0  0  0  0  0  0  0
    4.7461   -3.4586    0.0000 C   0  0  0  0  0  0  0  0  0  0  0  0
    5.4024   -6.3743    0.0000 C   0  0  0  0  0  0  0  0  0  0  0  0
    6.0714   -3.4586    0.0000 C   0  0  0  0  0  0  0  0  0  0  0  0
    4.0771   -2.3099    0.0000 C   0  0  0  0  0  0  0  0  0  0  0  0
    6.6142   -5.7937    0.0000 C   0  0  0  0  0  0  0  0  0  0  0  0
    6.9045   -4.4936    0.0000 N   0  0  0  0  0  0  0  0  0  0  0  0
    6.7404   -2.3099    0.0000 C   0  0  0  0  0  0  0  0  0  0  0  0
    4.7461   -1.1486    0.0000 C   0  0  0  0  0  0  0  0  0  0  0  0
    7.6492   -6.6268    0.0000 O   0  0  0  0  0  0  0  0  0  0  0  0
    8.1794   -4.2159    0.0000 C   0  0  0  0  0  0  0  0  0  0  0  0
    6.0714   -1.1486    0.0000 C   0  0  0  0  0  0  0  0  0  0  0  0
    4.0771   -0.0000    0.0000 Cl  0  0  0  0  0  0  0  0  0  0  0  0
    9.1260   -5.1626    0.0000 C   0  0  0  0  0  0  0  0  0  0  0  0
   10.4009   -4.8344    0.0000 N   0  0  0  0  0  0  0  0  0  0  0  0
   11.3350   -5.7811    0.0000 C   0  0  0  0  0  0  0  0  0  0  0  0
   10.7417   -3.5469    0.0000 C   0  0  0  0  0  0  0  0  0  0  0  0
   12.6225   -5.4277    0.0000 C   0  0  0  0  0  0  0  0  0  0  0  0
    9.7950   -2.6002    0.0000 C   0  0  0  0  0  0  0  0  0  0  0  0
  1  2  2  0  0  0  0 
  1  3  1  0  0  0  0 
  2  4  1  0  0  0  0 
  5  3  2  0  0  0  0 
  4  6  1  0  0  0  0 
  4  7  2  0  0  0  0 
  7  5  1  0  0  0  0 
  7  8  1  0  0  0  0 
  8  9  2  0  0  0  0 
  8 10  1  0  0  0  0 
  9 11  1  0  0  0  0 
 12 10  2  0  0  0  0 
 10 13  1  0  0  0  0 
 11 14  1  0  0  0  0 
 15 12  1  0  0  0  0 
 12 16  1  0  0  0  0 
 13 17  2  0  0  0  0 
 14 18  2  0  0  0  0 
 14 15  1  0  0  0  0 
 15 19  1  0  0  0  0 
 20 16  2  0  0  0  0 
 17 21  1  0  0  0  0 
 17 20  1  0  0  0  0 
 19 22  1  0  0  0  0 
 22 23  1  0  0  0  0 
 23 24  1  0  0  0  0 
 23 25  1  0  0  0  0 
 24 26  1  0  0  0  0 
 25 27  1  0  0  0  0 
M  END
> <Name>
2H-1,4-Benzodiazepin-2-one, 1,3-dihydro-7-chloro-1-(2-(diethylamino)ethyl)-5-(o-fluorophenyl)-

> <Source>
DSSTox2DMolFile

> <Tox>
2.597

> <CAS>
17617-23-1

$$$$

  CDK

 17 18  0  0  0  0  0  0  0  0999 V2000
    0.0000    3.0020    0.0000 C   0  0  0  0  0  0  0  0  0  0  0  0
    0.8650    3.5069    0.0000 C   0  0  0  0  0  0  0  0  0  0  0  0
    0.0000    1.9976    0.0000 C   0  0  0  0  0  0  0  0  0  0  0  0
    1.7355    3.0020    0.0000 C   0  0  0  0  0  0  0  0  0  0  0  0
    0.8650    1.4982    0.0000 C   0  0  0  0  0  0  0  0  0  0  0  0
    1.7355    1.9976    0.0000 C   0  0  0  0  0  0  0  0  0  0  0  0
    2.5913    1.4982    0.0000 N   0  0  0  0  0  0  0  0  0  0  0  0
    3.4563    2.0032    0.0000 C   0  0  0  0  0  0  0  0  0  0  0  0
    2.5961    0.4966    0.0000 C   0  0  0  0  0  0  0  0  0  0  0  0
    4.3262    1.5066    0.0000 C   0  0  0  0  0  0  0  0  0  0  0  0
    3.4660    0.0000    0.0000 C   0  0  0  0  0  0  0  0  0  0  0  0
    4.3310    0.5050    0.0000 N   0  0  0  0  0  0  0  0  0  0  0  0
    5.1882    0.0056    0.0000 C   0  0  0  0  0  0  0  0  0  0  0  0
    6.0483    0.5105    0.0000 C   0  0  0  0  0  0  0  0  0  0  0  0
    6.0483    1.5093    0.0000 O   0  0  0  0  0  0  0  0  0  0  0  0
    6.9085    0.0111    0.0000 C   0  0  0  0  0  0  0  0  0  0  0  0
    7.7685    0.5161    0.0000 O   0  0  0  0  0  0  0  0  0  0  0  0
  1  2  2  0  0  0  0 
  3  1  1  0  0  0  0 
  2  4  1  0  0  0  0 
  5  3  2  0  0  0  0 
  4  6  2  0  0  0  0 
  6  5  1  0  0  0  0 
  6  7  1  0  0  0  0 
  7  8  1  0  0  0  0 
  9  7  1  0  0  0  0 
  8 10  1  0  0  0  0 
 11  9  1  0  0  0  0 
 10 12  1  0  0  0  0 
 12 11  1  0  0  0  0 
 12 13  1  0  0  0  0 
 13 14  1  0  0  0  0 
 14 15  1  0  0  0  0 
 14 16  1  0  0  0  0 
 16 17  1  0  0  0  0 
M  END
> <Name>
1,2-Propanediol, 3-(4-phenyl-1-piperazinyl)-

> <Source>
NIST2DMolFile

> <Tox>
2.498

> <CAS>
17692-31-8

$$$$

  CDK

 29 31  0  0  0  0  0  0  0  0999 V2000
    0.0000    0.0000    0.0000 O   0  0  0  0  0  0  0  0  0  0  0  0
    0.6996    1.2127    0.0000 C   0  0  0  0  0  0  0  0  0  0  0  0
    2.0988    1.2127    0.0000 C   0  0  0  0  0  0  0  0  0  0  0  0
    2.7984    2.4253    0.0000 O   0  0  0  0  0  0  0  0  0  0  0  0
    4.1977    2.4253    0.0000 C   0  0  0  0  0  0  0  0  0  0  0  0
    4.8973    3.6380    0.0000 C   0  0  0  0  0  0  0  0  0  0  0  0
    6.2965    3.6380    0.0000 O   0  0  0  0  0  0  0  0  0  0  0  0
    6.9961    4.8506    0.0000 C   0  0  0  0  0  0  0  0  0  0  0  0
    8.3953    4.8506    0.0000 C   0  0  0  0  0  0  0  0  0  0  0  0
    9.0949    6.0633    0.0000 N   0  0  0  0  0  0  0  0  0  0  0  0
    8.3953    7.2760    0.0000 C   0  0  0  0  0  0  0  0  0  0  0  0
   10.4942    6.0633    0.0000 C   0  0  0  0  0  0  0  0  0  0  0  0
    9.0949    8.4886    0.0000 C   0  0  0  0  0  0  0  0  0  0  0  0
   11.1938    7.2760    0.0000 C   0  0  0  0  0  0  0  0  0  0  0  0
   10.4942    8.4886    0.0000 N   0  0  0  0  0  0  0  0  0  0  0  0
   11.1938    9.7013    0.0000 C   0  0  0  0  0  0  0  0  0  0  0  0
   12.5930    9.7013    0.0000 C   0  0  0  0  0  0  0  0  0  0  0  0
   10.4942   10.9139    0.0000 C   0  0  0  0  0  0  0  0  0  0  0  0
   13.2926   10.9139    0.0000 C   0  0  0  0  0  0  0  0  0  0  0  0
   13.2926    8.4886    0.0000 C   0  0  0  0  0  0  0  0  0  0  0  0
    9.0949   10.9139    0.0000 C   0  0  0  0  0  0  0  0  0  0  0  0
   11.1938   12.1266    0.0000 C   0  0  0  0  0  0  0  0  0  0  0  0
   14.6918   10.9139    0.0000 C   0  0  0  0  0  0  0  0  0  0  0  0
   14.6918    8.4886    0.0000 C   0  0  0  0  0  0  0  0  0  0  0  0
    8.3953   12.1266    0.0000 C   0  0  0  0  0  0  0  0  0  0  0  0
   10.4942   13.3393    0.0000 C   0  0  0  0  0  0  0  0  0  0  0  0
   15.3915    9.7013    0.0000 C   0  0  0  0  0  0  0  0  0  0  0  0
    9.0949   13.3393    0.0000 C   0  0  0  0  0  0  0  0  0  0  0  0
    8.3953   14.5519    0.0000 Cl  0  0  0  0  0  0  0  0  0  0  0  0
  1  2  1  0  0  0  0 
  2  3  1  0  0  0  0 
  3  4  1  0  0  0  0 
  4  5  1  0  0  0  0 
  5  6  1  0  0  0  0 
  6  7  1  0  0  0  0 
  7  8  1  0  0  0  0 
  8  9  1  0  0  0  0 
  9 10  1  0  0  0  0 
 10 11  1  0  0  0  0 
 10 12  1  0  0  0  0 
 11 13  1  0  0  0  0 
 14 12  1  0  0  0  0 
 13 15  1  0  0  0  0 
 15 14  1  0  0  0  0 
 15 16  1  0  0  0  0 
 16 17  1  0  0  0  0 
 16 18  1  0  0  0  0 
 17 19  2  0  0  0  0 
 17 20  1  0  0  0  0 
 18 21  2  0  0  0  0 
 18 22  1  0  0  0  0 
 19 23  1  0  0  0  0 
 24 20  2  0  0  0  0 
 21 25  1  0  0  0  0 
 26 22  2  0  0  0  0 
 23 27  2  0  0  0  0 
 27 24  1  0  0  0  0 
 25 28  2  0  0  0  0 
 28 26  1  0  0  0  0 
 28 29  1  0  0  0  0 
M  END
> <Name>
Ethanol, 2-(2-(2-(4-((4-chlorophenyl)phenylmethyl)-1-piperazinyl)ethoxy)ethoxy)- (9CI)

> <Source>
IndexNet2DMolFile

> <Tox>
2.658

> <CAS>
17692-34-1

$$$$

  CDK

 15 15  0  0  0  0  0  0  0  0999 V2000
    1.6328    1.0088    0.0000 S   0  0  0  0  0  0  0  0  0  0  0  0
    0.8496    0.7497    0.0000 C   0  0  0  0  0  0  0  0  0  0  0  0
    2.1213    0.3440    0.0000 C   0  0  0  0  0  0  0  0  0  0  0  0
    0.1796    1.2310    0.0000 O   0  0  0  0  0  0  0  0  0  0  0  0
    0.8540   -0.0753    0.0000 N   0  0  0  0  0  0  0  0  0  0  0  0
    1.6400   -0.3261    0.0000 C   0  0  0  0  0  0  0  0  0  0  0  0
    0.1891   -0.5638    0.0000 C   0  0  0  0  0  0  0  0  0  0  0  0
    1.8991   -1.1093    0.0000 O   0  0  0  0  0  0  0  0  0  0  0  0
   -0.4757   -1.0523    0.0000 S   0  0  0  0  0  0  0  0  0  0  0  0
   -1.2311   -0.7207    0.0000 P   0  0  0  0  0  0  0  0  0  0  0  0
   -1.5627   -1.4762    0.0000 S   0  0  0  0  0  0  0  0  0  0  0  0
   -0.8996    0.0347    0.0000 O   0  0  0  0  0  0  0  0  0  0  0  0
   -1.9866   -0.3892    0.0000 O   0  0  0  0  0  0  0  0  0  0  0  0
   -0.0796    0.1253    0.0000 C   0  0  0  0  0  0  0  0  0  0  0  0
   -2.0772    0.4308    0.0000 C   0  0  0  0  0  0  0  0  0  0  0  0
  1  2  1  0  0  0  0 
  1  3  1  0  0  0  0 
  2  4  2  0  0  0  0 
  2  5  1  0  0  0  0 
  6  3  1  0  0  0  0 
  5  7  1  0  0  0  0 
  5  6  1  0  0  0  0 
  6  8  2  0  0  0  0 
  7  9  1  0  0  0  0 
  9 10  1  0  0  0  0 
 10 11  2  0  0  0  0 
 10 12  1  0  0  0  0 
 10 13  1  0  0  0  0 
 12 14  1  0  0  0  0 
 13 15  1  0  0  0  0 
M  END
> <Name>
Phosphorodithioic acid, O,O-dimethyl ester, S-ester with 3-(mercaptomethyl)-2,4-thiazolidinedione

> <Source>
Smiles

> <Tox>
3.626

> <CAS>
17702-76-0

$$$$

  CDK

 18 18  0  0  0  0  0  0  0  0999 V2000
   -1.4494    1.2189   -2.4499 S   0  0  0  0  0  0  0  0  0  0  0  0
   -0.2753   -0.5461   -2.7016 P   0  0  0  0  0  0  0  0  0  0  0  0
   -3.0499    0.4454   -2.3255 C   0  0  0  0  0  0  0  0  0  0  0  0
    1.6293   -0.3365   -3.1336 S   0  0  0  0  0  0  0  0  0  0  0  0
   -1.0505   -1.4946   -3.7852 O   0  0  0  0  0  0  0  0  0  0  0  0
   -0.5061   -1.4754   -1.3758 O   0  0  0  0  0  0  0  0  0  0  0  0
   -3.2183   -0.4277   -1.3145 N   0  0  0  0  0  0  0  0  0  0  0  0
   -3.9612    0.7977   -3.2519 N   0  0  0  0  0  0  0  0  0  0  0  0
   -1.1336   -1.1074   -5.1469 C   0  0  0  0  0  0  0  0  0  0  0  0
    0.0033   -1.0668   -0.1168 C   0  0  0  0  0  0  0  0  0  0  0  0
   -4.4413   -0.9938   -1.2495 C   0  0  0  0  0  0  0  0  0  0  0  0
   -5.1614    0.1940   -3.1274 C   0  0  0  0  0  0  0  0  0  0  0  0
   -1.9037   -2.1710   -5.9144 C   0  0  0  0  0  0  0  0  0  0  0  0
   -0.3547   -2.1086    0.9216 C   0  0  0  0  0  0  0  0  0  0  0  0
   -5.4615   -0.7187   -2.1369 C   0  0  0  0  0  0  0  0  0  0  0  0
   -4.6713   -1.9681   -0.1434 C   0  0  0  0  0  0  0  0  0  0  0  0
   -6.2015    0.5557   -4.1338 C   0  0  0  0  0  0  0  0  0  0  0  0
   -3.3165   -2.3381   -5.3844 C   0  0  0  0  0  0  0  0  0  0  0  0
  1  2  1  0  0  0  0 
  1  3  1  0  0  0  0 
  4  2  2  0  0  0  0 
  2  5  1  0  0  0  0 
  2  6  1  0  0  0  0 
  7  3  1  0  0  0  0 
  8  3  2  0  0  0  0 
  5  9  1  0  0  0  0 
  6 10  1  0  0  0  0 
  7 11  2  0  0  0  0 
  8 12  1  0  0  0  0 
  9 13  1  0  0  0  0 
 10 14  1  0  0  0  0 
 11 15  1  0  0  0  0 
 11 16  1  0  0  0  0 
 12 15  2  0  0  0  0 
 12 17  1  0  0  0  0 
 13 18  1  0  0  0  0 
M  END
> <Name>
Phosphorodithioic acid, S-(4,6-dimethyl-2-pyrimidinyl) O-ethyl O-propyl ester

> <Source>
Chemidplus3DMolFile

> <Tox>
3.589

> <CAS>
17702-79-3

$$$$

  CDK

  8  7  0  0  0  0  0  0  0  0999 V2000
    2.0988    1.2127    0.0000 C   0  0  0  0  0  0  0  0  0  0  0  0
    3.4981    1.2127    0.0000 N   0  0  0  0  0  0  0  0  0  0  0  0
    0.6996    1.2127    0.0000 C   0  0  0  0  0  0  0  0  0  0  0  0
    0.0000    0.0000    0.0000 O   0  0  0  0  0  0  0  0  0  0  0  0
    0.0000    2.4253    0.0000 C   0  0  0  0  0  0  0  0  0  0  0  0
    0.6996    3.6380    0.0000 C   0  0  0  0  0  0  0  0  0  0  0  0
    0.0000    4.8506    0.0000 S   0  0  0  0  0  0  0  0  0  0  0  0
    0.6996    6.0633    0.0000 C   0  0  0  0  0  0  0  0  0  0  0  0
  1  2  3  0  0  0  0 
  1  3  1  0  0  0  0 
  3  4  1  0  0  0  0 
  3  5  1  0  0  0  0 
  5  6  1  0  0  0  0 
  6  7  1  0  0  0  0 
  7  8  1  0  0  0  0 
M  END
> <Name>
Butanenitrile, 2-hydroxy-4-(methylthio)-

> <Source>
IndexNet2DMolFile

> <Tox>
3.437

> <CAS>
17773-41-0

$$$$

  CDK

 18 20  0  0  0  0  0  0  0  0999 V2000
    2.3087   -2.7838    0.0000 C   0  0  0  0  0  0  0  0  0  0  0  0
    2.3087   -4.1174    0.0000 C   0  0  0  0  0  0  0  0  0  0  0  0
    3.5589   -2.3837    0.0000 C   0  0  0  0  0  0  0  0  0  0  0  0
    1.1502   -2.1337    0.0000 C   0  0  0  0  0  0  0  0  0  0  0  0
    3.5589   -4.5341    0.0000 C   0  0  0  0  0  0  0  0  0  0  0  0
    1.1502   -4.7925    0.0000 C   0  0  0  0  0  0  0  0  0  0  0  0
    4.3424   -3.4589    0.0000 N   0  0  0  0  0  0  0  0  0  0  0  0
    3.9757   -1.1169    0.0000 O   0  0  0  0  0  0  0  0  0  0  0  0
    0.0000   -2.7838    0.0000 C   0  0  0  0  0  0  0  0  0  0  0  0
    3.9757   -5.8010    0.0000 O   0  0  0  0  0  0  0  0  0  0  0  0
    0.0000   -4.1174    0.0000 C   0  0  0  0  0  0  0  0  0  0  0  0
    5.6759   -3.4589    0.0000 S   0  0  0  0  0  0  0  0  0  0  0  0
    6.3511   -2.3087    0.0000 C   0  0  0  0  0  0  0  0  0  0  0  0
    5.6759   -1.1502    0.0000 C   0  0  0  0  0  0  0  0  0  0  0  0
    7.6763   -2.3087    0.0000 C   0  0  0  0  0  0  0  0  0  0  0  0
    6.3511   -0.0000    0.0000 C   0  0  0  0  0  0  0  0  0  0  0  0
    8.3347   -1.1502    0.0000 C   0  0  0  0  0  0  0  0  0  0  0  0
    7.6763   -0.0000    0.0000 C   0  0  0  0  0  0  0  0  0  0  0  0
  1  2  2  0  0  0  0 
  1  3  1  0  0  0  0 
  1  4  1  0  0  0  0 
  2  5  1  0  0  0  0 
  2  6  1  0  0  0  0 
  7  3  1  0  0  0  0 
  3  8  2  0  0  0  0 
  4  9  2  0  0  0  0 
  7  5  1  0  0  0  0 
  5 10  2  0  0  0  0 
  6 11  2  0  0  0  0 
  7 12  1  0  0  0  0 
 11  9  1  0  0  0  0 
 12 13  1  0  0  0  0 
 13 14  1  0  0  0  0 
 13 15  1  0  0  0  0 
 14 16  1  0  0  0  0 
 17 15  1  0  0  0  0 
 16 18  1  0  0  0  0 
 18 17  1  0  0  0  0 
M  END
> <Name>
1H-Isoindole-1,3(2H)-dione, 2-(cyclohexylthio)-

> <Source>
DSSTox2DMolFile

> <Tox>
2.002

> <CAS>
17796-82-6

$$$$

  CDK

 20 20  0  0  0  0  0  0  0  0999 V2000
   -1.6894   -1.5797    0.0000 C   0  0  0  0  0  0  0  0  0  0  0  0
   -2.1019   -0.8652    0.0000 C   0  0  0  0  0  0  0  0  0  0  0  0
   -2.8163   -1.2777    0.0000 C   0  0  0  0  0  0  0  0  0  0  0  0
   -1.3874   -0.4527    0.0000 O   0  0  0  0  0  0  0  0  0  0  0  0
   -1.3874    0.3723    0.0000 C   0  0  0  0  0  0  0  0  0  0  0  0
   -0.6729    0.7848    0.0000 C   0  0  0  0  0  0  0  0  0  0  0  0
   -2.1019    0.7848    0.0000 C   0  0  0  0  0  0  0  0  0  0  0  0
    0.0415    0.3723    0.0000 O   0  0  0  0  0  0  0  0  0  0  0  0
   -0.6729    1.6098    0.0000 C   0  0  0  0  0  0  0  0  0  0  0  0
   -2.1019    1.6098    0.0000 C   0  0  0  0  0  0  0  0  0  0  0  0
    0.7560    0.7848    0.0000 C   0  0  0  0  0  0  0  0  0  0  0  0
   -1.3874    2.0223    0.0000 C   0  0  0  0  0  0  0  0  0  0  0  0
    0.7560    1.6098    0.0000 O   0  0  0  0  0  0  0  0  0  0  0  0
    1.4705    0.3723    0.0000 N   0  0  0  0  0  0  0  0  0  0  0  0
    1.4705   -0.4527    0.0000 C   0  0  0  0  0  0  0  0  0  0  0  0
    2.1850    0.7848    0.0000 C   0  0  0  0  0  0  0  0  0  0  0  0
    2.1850    1.6098    0.0000 O   0  0  0  0  0  0  0  0  0  0  0  0
    2.8994    0.3723    0.0000 C   0  0  0  0  0  0  0  0  0  0  0  0
    3.6139   -0.0402    0.0000 S   0  0  0  0  0  0  0  0  0  0  0  0
    3.6139   -0.8652    0.0000 C   0  0  0  0  0  0  0  0  0  0  0  0
  1  2  1  0  0  0  0 
  2  3  1  0  0  0  0 
  2  4  1  0  0  0  0 
  4  5  1  0  0  0  0 
  5  6  1  0  0  0  0 
  5  7  2  0  0  0  0 
  6  8  1  0  0  0  0 
  6  9  2  0  0  0  0 
 10  7  1  0  0  0  0 
  8 11  1  0  0  0  0 
  9 12  1  0  0  0  0 
 12 10  2  0  0  0  0 
 11 13  2  0  0  0  0 
 11 14  1  0  0  0  0 
 14 15  1  0  0  0  0 
 14 16  1  0  0  0  0 
 16 17  2  0  0  0  0 
 16 18  1  0  0  0  0 
 18 19  1  0  0  0  0 
 19 20  1  0  0  0  0 
M  END
> <Name>
Carbamic acid, methyl ((methylthio)acetyl)-, o-isopropoxyphenyl ester

> <Source>
Smiles

> <Tox>
2.660

> <CAS>
17959-12-5

$$$$

  CDK

 19 18  0  0  0  0  0  0  0  0999 V2000
   -0.1969    0.5419   -0.5918 S   0  0  0  0  0  0  0  0  0  0  0  0
    1.6886   -0.2305   -1.1843 P   0  0  0  0  0  0  0  0  0  0  0  0
   -0.9285   -0.6337    0.5702 C   0  0  0  0  0  0  0  0  0  0  0  0
    2.9975   -0.6795    0.2005 S   0  0  0  0  0  0  0  0  0  0  0  0
    1.3682   -1.4548   -2.2140 O   0  0  0  0  0  0  0  0  0  0  0  0
    2.3053    1.0309   -2.3347 C   0  0  0  0  0  0  0  0  0  0  0  0
   -1.1139   -2.3106   -0.0922 S   0  0  0  0  0  0  0  0  0  0  0  0
    2.3839   -2.0300   -3.0175 C   0  0  0  0  0  0  0  0  0  0  0  0
    2.6902    2.3153   -1.6313 C   0  0  0  0  0  0  0  0  0  0  0  0
   -2.2685   -1.9808   -1.4507 C   0  0  0  0  0  0  0  0  0  0  0  0
    1.7806   -3.1338   -3.8597 C   0  0  0  0  0  0  0  0  0  0  0  0
   -2.6989   -3.4888   -2.3554 S   0  0  0  0  0  0  0  0  0  0  0  0
   -4.0375   -2.9255   -3.9032 P   0  0  0  0  0  0  0  0  0  0  0  0
   -5.6746   -1.9728   -3.4077 S   0  0  0  0  0  0  0  0  0  0  0  0
   -3.2147   -2.1165   -5.0543 O   0  0  0  0  0  0  0  0  0  0  0  0
   -4.4238   -4.4768   -4.7629 C   0  0  0  0  0  0  0  0  0  0  0  0
   -2.0155   -2.6161   -5.6170 C   0  0  0  0  0  0  0  0  0  0  0  0
   -5.2532   -4.2548   -6.0099 C   0  0  0  0  0  0  0  0  0  0  0  0
   -1.5077   -1.6321   -6.6493 C   0  0  0  0  0  0  0  0  0  0  0  0
  1  2  1  0  0  0  0 
  1  3  1  0  0  0  0 
  4  2  2  0  0  0  0 
  2  5  1  0  0  0  0 
  2  6  1  0  0  0  0 
  7  3  1  0  0  0  0 
  5  8  1  0  0  0  0 
  6  9  1  0  0  0  0 
  7 10  1  0  0  0  0 
  8 11  1  0  0  0  0 
 12 10  1  0  0  0  0 
 12 13  1  0  0  0  0 
 14 13  2  0  0  0  0 
 13 15  1  0  0  0  0 
 13 16  1  0  0  0  0 
 15 17  1  0  0  0  0 
 16 18  1  0  0  0  0 
 17 19  1  0  0  0  0 
M  END
> <Name>
Phosphonodithioic acid, ethyl-, O-ethyl ester, S,S-diester with thiodimethanethiol (7CI)

> <Source>
Chemidplus3DMolFile

> <Tox>
5.239

> <CAS>
18300-10-2

$$$$

  CDK

 10  9  0  0  0  0  0  0  0  0999 V2000
    1.3801    0.1536   -0.6256 C   0  0  0  0  0  0  0  0  0  0  0  0
   -0.0995    0.1669   -0.9060 C   0  0  0  0  0  0  0  0  0  0  0  0
    1.6608    0.7507    0.6291 O   0  0  0  0  0  0  0  0  0  0  0  0
    1.9469   -1.1400   -0.5839 O   0  0  0  0  0  0  0  0  0  0  0  0
   -0.9882    0.9508   -0.2969 C   0  0  0  0  0  0  0  0  0  0  0  0
    2.9275    1.3496    0.7302 C   0  0  0  0  0  0  0  0  0  0  0  0
    1.3580   -2.0652    0.2987 C   0  0  0  0  0  0  0  0  0  0  0  0
   -2.4392    0.9227   -0.6343 C   0  0  0  0  0  0  0  0  0  0  0  0
   -3.2551    0.3368    0.5114 C   0  0  0  0  0  0  0  0  0  0  0  0
   -3.0608   -1.1577    0.6398 C   0  0  0  0  0  0  0  0  0  0  0  0
  1  2  1  0  0  0  0 
  1  3  1  0  0  0  0 
  1  4  1  0  0  0  0 
  2  5  2  0  0  0  0 
  3  6  1  0  0  0  0 
  4  7  1  0  0  0  0 
  5  8  1  0  0  0  0 
  8  9  1  0  0  0  0 
  9 10  1  0  0  0  0 
M  END
> <Name>
2-Hexenal, dimethyl acetal, (E)- (8CI)

> <Source>
DougDB3DMolFile

> <Tox>
1.929

> <CAS>
18318-83-7

$$$$

  CDK

 15 15  0  0  0  0  0  0  0  0999 V2000
   -1.0656   -2.5096    0.0000 Cl  0  0  0  0  0  0  0  0  0  0  0  0
   -1.0656   -1.6846    0.0000 C   0  0  0  0  0  0  0  0  0  0  0  0
   -0.3511   -1.2721    0.0000 C   0  0  0  0  0  0  0  0  0  0  0  0
   -1.7800   -1.2721    0.0000 C   0  0  0  0  0  0  0  0  0  0  0  0
   -0.3511   -0.4471    0.0000 C   0  0  0  0  0  0  0  0  0  0  0  0
   -1.7800   -0.4471    0.0000 C   0  0  0  0  0  0  0  0  0  0  0  0
   -1.0656   -0.0346    0.0000 C   0  0  0  0  0  0  0  0  0  0  0  0
   -1.0656    0.7904    0.0000 S   0  0  0  0  0  0  0  0  0  0  0  0
   -0.3511    1.2029    0.0000 C   0  0  0  0  0  0  0  0  0  0  0  0
    0.3634    1.6154    0.0000 S   0  0  0  0  0  0  0  0  0  0  0  0
    1.0778    1.2029    0.0000 P   0  0  0  0  0  0  0  0  0  0  0  0
    1.4903    1.9173    0.0000 S   0  0  0  0  0  0  0  0  0  0  0  0
    0.6653    0.4884    0.0000 C   0  0  0  0  0  0  0  0  0  0  0  0
    1.7923    0.7904    0.0000 O   0  0  0  0  0  0  0  0  0  0  0  0
    1.7923   -0.0346    0.0000 C   0  0  0  0  0  0  0  0  0  0  0  0
  1  2  1  0  0  0  0 
  2  3  1  0  0  0  0 
  2  4  2  0  0  0  0 
  3  5  2  0  0  0  0 
  6  4  1  0  0  0  0 
  5  7  1  0  0  0  0 
  7  6  2  0  0  0  0 
  7  8  1  0  0  0  0 
  8  9  1  0  0  0  0 
  9 10  1  0  0  0  0 
 10 11  1  0  0  0  0 
 11 12  2  0  0  0  0 
 11 13  1  0  0  0  0 
 11 14  1  0  0  0  0 
 14 15  1  0  0  0  0 
M  END
> <Name>
Phosphonodithioic acid, methyl-, S-(((4-chlorophenyl)thio)methyl) O-methyl ester

> <Source>
Smiles

> <Tox>
3.984

> <CAS>
18466-11-0

$$$$

  CDK

 17 17  0  0  0  0  0  0  0  0999 V2000
   -7.0111   -1.9043    3.8658 S   0  0  0  0  0  0  0  0  0  0  0  0
   -5.7399   -0.7555    2.9385 P   0  0  0  0  0  0  0  0  0  0  0  0
   -4.6458   -1.4877    1.9935 O   0  0  0  0  0  0  0  0  0  0  0  0
   -4.7917    0.1844    3.8684 O   0  0  0  0  0  0  0  0  0  0  0  0
   -6.3617    0.3369    1.9056 O   0  0  0  0  0  0  0  0  0  0  0  0
   -3.6282   -2.2947    2.5936 C   0  0  0  0  0  0  0  0  0  0  0  0
   -5.3766    1.0129    4.8591 C   0  0  0  0  0  0  0  0  0  0  0  0
   -6.9900   -0.1004    0.7124 C   0  0  0  0  0  0  0  0  0  0  0  0
   -2.8023   -1.4274    3.5555 C   0  0  0  0  0  0  0  0  0  0  0  0
   -2.7442   -2.8557    1.4706 C   0  0  0  0  0  0  0  0  0  0  0  0
   -4.3194   -3.4318    3.3480 C   0  0  0  0  0  0  0  0  0  0  0  0
   -2.0227   -0.3315    2.8249 C   0  0  0  0  0  0  0  0  0  0  0  0
   -1.9617   -1.7595    0.7430 C   0  0  0  0  0  0  0  0  0  0  0  0
   -1.1335   -0.9114    1.7171 C   0  0  0  0  0  0  0  0  0  0  0  0
   -0.4084    0.1803    0.9888 C   0  0  0  0  0  0  0  0  0  0  0  0
    1.0894    0.1405    1.0587 C   0  0  0  0  0  0  0  0  0  0  0  0
   -1.0616    1.1373    0.3132 C   0  0  0  0  0  0  0  0  0  0  0  0
  1  2  2  0  0  0  0 
  2  3  1  0  0  0  0 
  2  4  1  0  0  0  0 
  2  5  1  0  0  0  0 
  3  6  1  0  0  0  0 
  4  7  1  0  0  0  0 
  5  8  1  0  0  0  0 
  6  9  1  0  0  0  0 
  6 10  1  0  0  0  0 
  6 11  1  0  0  0  0 
  9 12  1  0  0  0  0 
 10 13  1  0  0  0  0 
 14 12  1  0  0  0  0 
 14 13  1  0  0  0  0 
 14 15  1  0  0  0  0 
 15 16  1  0  0  0  0 
 15 17  2  0  0  0  0 
M  END
> <Name>
Phosphorothioic acid, O,O-dimethyl O-p-menth-8-en-1-yl ester

> <Source>
Chemidplus3DMolFile

> <Tox>
2.746

> <CAS>
18470-08-1

$$$$

  CDK

 11 10  0  0  0  0  0  0  0  0999 V2000
    0.0000   -0.0000    0.0000 C   0  0  0  0  0  0  0  0  0  0  0  0
    1.1439   -0.6767    0.0000 C   0  0  0  0  0  0  0  0  0  0  0  0
    2.3039   -0.0000    0.0000 C   0  0  0  0  0  0  0  0  0  0  0  0
    1.1439   -1.9977    0.0000 O   0  0  0  0  0  0  0  0  0  0  0  0
    0.0000   -1.3211    0.0000 C   0  0  0  0  0  0  0  0  0  0  0  0
    3.4638   -0.6767    0.0000 C   0  0  0  0  0  0  0  0  0  0  0  0
    4.5916   -0.0000    0.0000 C   0  0  0  0  0  0  0  0  0  0  0  0
    5.7516   -0.6767    0.0000 C   0  0  0  0  0  0  0  0  0  0  0  0
    6.9116   -0.0000    0.0000 C   0  0  0  0  0  0  0  0  0  0  0  0
    5.7516   -1.9977    0.0000 C   0  0  0  0  0  0  0  0  0  0  0  0
    8.0554   -0.6767    0.0000 C   0  0  0  0  0  0  0  0  0  0  0  0
  1  2  1  0  0  0  0 
  2  3  1  0  0  0  0 
  2  4  1  0  0  0  0 
  2  5  1  0  0  0  0 
  3  6  1  0  0  0  0 
  6  7  1  0  0  0  0 
  7  8  1  0  0  0  0 
  8  9  1  0  0  0  0 
  8 10  1  0  0  0  0 
  9 11  2  0  0  0  0 
M  END
> <Name>
(1)-2,6-Dimethyloct-7-en-2-ol

> <Source>
DSSTox2DMolFile

> <Tox>
1.638

> <CAS>
18479-58-8

$$$$

  CDK

 14 15  0  0  0  0  0  0  0  0999 V2000
    1.8290   -0.9383    4.4004 Cl  0  0  0  0  0  0  0  0  0  0  0  0
    1.8509   -0.9767    2.6799 C   0  0  0  0  0  0  0  0  0  0  0  0
    2.9180   -1.5734    2.0082 C   0  0  0  0  0  0  0  0  0  0  0  0
    0.8008   -0.4105    1.9570 C   0  0  0  0  0  0  0  0  0  0  0  0
    2.9348   -1.6038    0.6137 C   0  0  0  0  0  0  0  0  0  0  0  0
    0.8176   -0.4410    0.5626 C   0  0  0  0  0  0  0  0  0  0  0  0
    4.2979   -2.3654   -0.2458 S   0  0  0  0  0  0  0  0  0  0  0  0
    1.8846   -1.0376   -0.1090 C   0  0  0  0  0  0  0  0  0  0  0  0
    4.2195   -4.0693    0.3748 C   0  0  0  0  0  0  0  0  0  0  0  0
    2.9341   -4.7307   -0.0010 C   0  0  0  0  0  0  0  0  0  0  0  0
    2.8019   -5.4076   -1.1266 N   0  0  0  0  0  0  0  0  0  0  0  0
    1.8431   -4.6720    0.7884 N   0  0  0  0  0  0  0  0  0  0  0  0
    1.5212   -5.7757   -0.9806 N   0  0  0  0  0  0  0  0  0  0  0  0
    0.9131   -5.3623    0.1399 N   0  0  0  0  0  0  0  0  0  0  0  0
  1  2  1  0  0  0  0 
  3  2  1  0  0  0  0 
  2  4  2  0  0  0  0 
  5  3  2  0  0  0  0 
  6  4  1  0  0  0  0 
  7  5  1  0  0  0  0 
  5  8  1  0  0  0  0 
  8  6  2  0  0  0  0 
  7  9  1  0  0  0  0 
  9 10  1  0  0  0  0 
 11 10  2  0  0  0  0 
 12 10  1  0  0  0  0 
 11 13  1  0  0  0  0 
 12 14  2  0  0  0  0 
 13 14  1  0  0  0  0 
M  END
> <Name>
1H-Tetrazole, 5-(((m-chlorophenyl)thio)methyl)-

> <Source>
Chemidplus3DMolFile

> <Tox>
2.013

> <CAS>
18527-35-0

$$$$

  CDK

 16 18  0  0  0  0  0  0  0  0999 V2000
   -3.1294    0.8389    0.1001 N   0  0  0  0  0  0  0  0  0  0  0  0
   -2.3272   -0.4012    0.0777 C   0  0  0  0  0  0  0  0  0  0  0  0
   -3.0370    1.5985   -1.1690 C   0  0  0  0  0  0  0  0  0  0  0  0
   -4.5241    0.6500    0.5576 C   0  0  0  0  0  0  0  0  0  0  0  0
   -2.8152   -1.5104   -0.1041 O   0  0  0  0  0  0  0  0  0  0  0  0
   -0.9671   -0.2161    0.3660 N   0  0  0  0  0  0  0  0  0  0  0  0
    0.0128   -1.3169    0.2970 C   0  0  0  0  0  0  0  0  0  0  0  0
    1.2665   -1.0380    1.1745 C   0  0  0  0  0  0  0  0  0  0  0  0
    0.6019   -1.5753   -1.1315 C   0  0  0  0  0  0  0  0  0  0  0  0
    1.9818    0.2882    0.8738 C   0  0  0  0  0  0  0  0  0  0  0  0
    2.3066   -1.9562    0.4493 C   0  0  0  0  0  0  0  0  0  0  0  0
    2.1180   -1.3012   -0.9422 C   0  0  0  0  0  0  0  0  0  0  0  0
    1.6548    1.7583    1.0546 C   0  0  0  0  0  0  0  0  0  0  0  0
    2.1608    0.2161   -0.6665 C   0  0  0  0  0  0  0  0  0  0  0  0
    2.6835    2.4035    0.0772 C   0  0  0  0  0  0  0  0  0  0  0  0
    3.2145    1.2878   -0.8742 C   0  0  0  0  0  0  0  0  0  0  0  0
  1  2  1  0  0  0  0 
  1  3  1  0  0  0  0 
  1  4  1  0  0  0  0 
  2  5  2  0  0  0  0 
  2  6  1  0  0  0  0 
  6  7  1  0  0  0  0 
  8  7  1  0  0  0  0 
  7  9  1  0  0  0  0 
 10  8  1  0  0  0  0 
  8 11  1  0  0  0  0 
  9 12  1  0  0  0  0 
 13 10  1  0  0  0  0 
 10 14  1  0  0  0  0 
 12 11  1  0  0  0  0 
 12 14  1  0  0  0  0 
 15 13  1  0  0  0  0 
 16 14  1  0  0  0  0 
 16 15  1  0  0  0  0 
M  END
> <Name>
(3aalpha,4alpha,5alpha,7alpha,7aalpha)-1,1-Dimethyl-3-(octahydro-4,7-methano-1H-inden-5-yl)urea

> <Source>
DougDB3DMolFile

> <Tox>
2.046

> <CAS>
18530-56-8

$$$$

  CDK

 18 18  0  0  0  0  0  0  0  0999 V2000
   -1.1399   -2.4725    0.0000 Cl  0  0  0  0  0  0  0  0  0  0  0  0
   -1.1399   -1.6475    0.0000 C   0  0  0  0  0  0  0  0  0  0  0  0
   -0.4254   -1.2350    0.0000 C   0  0  0  0  0  0  0  0  0  0  0  0
   -1.8544   -1.2350    0.0000 C   0  0  0  0  0  0  0  0  0  0  0  0
   -0.4254   -0.4100    0.0000 C   0  0  0  0  0  0  0  0  0  0  0  0
   -1.8544   -0.4100    0.0000 C   0  0  0  0  0  0  0  0  0  0  0  0
    0.2891    0.0025    0.0000 Cl  0  0  0  0  0  0  0  0  0  0  0  0
   -1.1399    0.0025    0.0000 C   0  0  0  0  0  0  0  0  0  0  0  0
   -1.1399    0.8275    0.0000 O   0  0  0  0  0  0  0  0  0  0  0  0
   -0.4254    1.2400    0.0000 C   0  0  0  0  0  0  0  0  0  0  0  0
    0.2891    1.6525    0.0000 S   0  0  0  0  0  0  0  0  0  0  0  0
    1.0035    1.2400    0.0000 P   0  0  0  0  0  0  0  0  0  0  0  0
    1.4160    1.9544    0.0000 S   0  0  0  0  0  0  0  0  0  0  0  0
    0.5910    0.5255    0.0000 C   0  0  0  0  0  0  0  0  0  0  0  0
    1.7180    0.8275    0.0000 O   0  0  0  0  0  0  0  0  0  0  0  0
   -0.1234    0.1130    0.0000 C   0  0  0  0  0  0  0  0  0  0  0  0
    1.7180    0.0025    0.0000 C   0  0  0  0  0  0  0  0  0  0  0  0
    1.7180   -0.8225    0.0000 C   0  0  0  0  0  0  0  0  0  0  0  0
  1  2  1  0  0  0  0 
  2  3  1  0  0  0  0 
  2  4  2  0  0  0  0 
  3  5  2  0  0  0  0 
  6  4  1  0  0  0  0 
  5  7  1  0  0  0  0 
  5  8  1  0  0  0  0 
  8  6  2  0  0  0  0 
  8  9  1  0  0  0  0 
  9 10  1  0  0  0  0 
 10 11  1  0  0  0  0 
 11 12  1  0  0  0  0 
 12 13  2  0  0  0  0 
 12 14  1  0  0  0  0 
 12 15  1  0  0  0  0 
 14 16  1  0  0  0  0 
 15 17  1  0  0  0  0 
 17 18  1  0  0  0  0 
M  END
> <Name>
Phosphonodithioic acid, ethyl-, S-((2,4-dichlorophenoxy)methyl) O-ethyl ester

> <Source>
Smiles

> <Tox>
3.489

> <CAS>
18596-51-5

$$$$

  CDK

 18 18  0  0  0  0  0  0  0  0999 V2000
    7.0000    1.2124    0.0000 C   0  0  0  0  0  0  0  0  0  0  0  0
    8.4000    1.2124    0.0000 N   0  0  0  0  0  0  0  0  0  0  0  0
    6.3000    0.0000    0.0000 O   0  0  0  0  0  0  0  0  0  0  0  0
    6.3000    2.4249    0.0000 O   0  0  0  0  0  0  0  0  0  0  0  0
    9.1000    2.4249    0.0000 C   0  0  0  0  0  0  0  0  0  0  0  0
    4.9000    2.4249    0.0000 C   0  0  0  0  0  0  0  0  0  0  0  0
    4.2000    1.2124    0.0000 C   0  0  0  0  0  0  0  0  0  0  0  0
    4.2000    3.6373    0.0000 C   0  0  0  0  0  0  0  0  0  0  0  0
    2.8000    1.2124    0.0000 C   0  0  0  0  0  0  0  0  0  0  0  0
    2.8000    3.6373    0.0000 C   0  0  0  0  0  0  0  0  0  0  0  0
    4.9000    4.8497    0.0000 C   0  0  0  0  0  0  0  0  0  0  0  0
    2.1000    0.0000    0.0000 C   0  0  0  0  0  0  0  0  0  0  0  0
    2.1000    2.4249    0.0000 C   0  0  0  0  0  0  0  0  0  0  0  0
    6.3000    4.8497    0.0000 C   0  0  0  0  0  0  0  0  0  0  0  0
    4.2000    6.0622    0.0000 C   0  0  0  0  0  0  0  0  0  0  0  0
    0.7000    2.4249    0.0000 N   0  0  0  0  0  0  0  0  0  0  0  0
    0.0000    1.2124    0.0000 C   0  0  0  0  0  0  0  0  0  0  0  0
    0.0000    3.6373    0.0000 C   0  0  0  0  0  0  0  0  0  0  0  0
  1  2  1  0  0  0  0 
  1  3  2  0  0  0  0 
  1  4  1  0  0  0  0 
  2  5  1  0  0  0  0 
  4  6  1  0  0  0  0 
  6  7  1  0  0  0  0 
  6  8  2  0  0  0  0 
  7  9  2  0  0  0  0 
 10  8  1  0  0  0  0 
  8 11  1  0  0  0  0 
  9 12  1  0  0  0  0 
  9 13  1  0  0  0  0 
 13 10  2  0  0  0  0 
 11 14  1  0  0  0  0 
 11 15  1  0  0  0  0 
 13 16  1  0  0  0  0 
 16 17  1  0  0  0  0 
 16 18  1  0  0  0  0 
M  END
> <Name>
Phenol, 4-(dimethylamino)-5-methyl-2-(1-methylethyl)-, methylcarbamate (ester) (9CI)

> <Source>
Name2DMolFile

> <Tox>
3.572

> <CAS>
18659-45-5

$$$$

  CDK

 14 13  0  0  0  0  0  0  0  0999 V2000
    1.7357    0.9994    0.0000 C   0  0  0  0  0  0  0  0  0  0  0  0
    0.8678    0.4997    0.0000 C   0  0  0  0  0  0  0  0  0  0  0  0
    2.6006    0.4987    0.0000 C   0  0  0  0  0  0  0  0  0  0  0  0
    0.0000    0.0000    0.0000 N   0  0  0  0  0  0  0  0  0  0  0  0
    3.4655    0.9994    0.0000 O   0  0  0  0  0  0  0  0  0  0  0  0
    4.3303    0.4987    0.0000 C   0  0  0  0  0  0  0  0  0  0  0  0
    5.1952    0.9994    0.0000 C   0  0  0  0  0  0  0  0  0  0  0  0
    6.0601    0.4987    0.0000 C   0  0  0  0  0  0  0  0  0  0  0  0
    6.9250    0.9994    0.0000 C   0  0  0  0  0  0  0  0  0  0  0  0
    7.7898    0.4987    0.0000 O   0  0  0  0  0  0  0  0  0  0  0  0
    8.6547    0.9994    0.0000 C   0  0  0  0  0  0  0  0  0  0  0  0
    9.5196    0.4987    0.0000 C   0  0  0  0  0  0  0  0  0  0  0  0
   10.3875    0.9983    0.0000 C   0  0  0  0  0  0  0  0  0  0  0  0
   11.2553    1.4980    0.0000 N   0  0  0  0  0  0  0  0  0  0  0  0
  1  2  1  0  0  0  0 
  1  3  1  0  0  0  0 
  2  4  3  0  0  0  0 
  3  5  1  0  0  0  0 
  5  6  1  0  0  0  0 
  6  7  1  0  0  0  0 
  7  8  1  0  0  0  0 
  8  9  1  0  0  0  0 
  9 10  1  0  0  0  0 
 10 11  1  0  0  0  0 
 11 12  1  0  0  0  0 
 12 13  1  0  0  0  0 
 13 14  3  0  0  0  0 
M  END
> <Name>
Propionitrile, 3,3'-(tetramethylenedioxy)di- (6CI,7CI,8CI)

> <Source>
NIST2DMolFile

> <Tox>
1.691

> <CAS>
18664-94-3

$$$$

  CDK

 16 16  0  0  0  0  0  0  0  0999 V2000
   -1.2001   -1.9560    0.0000 C   0  0  0  0  0  0  0  0  0  0  0  0
   -0.4857   -1.5435    0.0000 C   0  0  0  0  0  0  0  0  0  0  0  0
    0.2288   -1.1310    0.0000 C   0  0  0  0  0  0  0  0  0  0  0  0
    0.9433   -0.7185    0.0000 O   0  0  0  0  0  0  0  0  0  0  0  0
    0.9433    0.1065    0.0000 P   0  0  0  0  0  0  0  0  0  0  0  0
    1.7683    0.1065    0.0000 O   0  0  0  0  0  0  0  0  0  0  0  0
    0.9433    0.9315    0.0000 C   0  0  0  0  0  0  0  0  0  0  0  0
    0.1183    0.1065    0.0000 O   0  0  0  0  0  0  0  0  0  0  0  0
    1.6578    1.3440    0.0000 C   0  0  0  0  0  0  0  0  0  0  0  0
    0.2288    1.3440    0.0000 C   0  0  0  0  0  0  0  0  0  0  0  0
   -0.5962   -0.3060    0.0000 C   0  0  0  0  0  0  0  0  0  0  0  0
    1.6578    2.1690    0.0000 C   0  0  0  0  0  0  0  0  0  0  0  0
    0.2288    2.1690    0.0000 C   0  0  0  0  0  0  0  0  0  0  0  0
   -1.3107   -0.7185    0.0000 C   0  0  0  0  0  0  0  0  0  0  0  0
    0.9433    2.5815    0.0000 C   0  0  0  0  0  0  0  0  0  0  0  0
   -2.0251   -1.1310    0.0000 C   0  0  0  0  0  0  0  0  0  0  0  0
  1  2  1  0  0  0  0 
  2  3  1  0  0  0  0 
  3  4  1  0  0  0  0 
  4  5  1  0  0  0  0 
  5  6  2  0  0  0  0 
  5  7  1  0  0  0  0 
  5  8  1  0  0  0  0 
  7  9  1  0  0  0  0 
  7 10  2  0  0  0  0 
  8 11  1  0  0  0  0 
  9 12  2  0  0  0  0 
 13 10  1  0  0  0  0 
 11 14  1  0  0  0  0 
 12 15  1  0  0  0  0 
 15 13  2  0  0  0  0 
 14 16  3  0  0  0  0 
M  END
> <Name>
Phosphonic acid, phenyl-, propyl (2-propynyl) ester

> <Source>
Smiles

> <Tox>
2.818

> <CAS>
18705-22-1

$$$$

  CDK

 17 18  0  0  0  0  0  0  0  0999 V2000
    2.9876    3.1249    0.0000 C   0  0  0  0  0  0  0  0  0  0  0  0
    4.2000    2.4249    0.0000 P   0  0  0  0  0  0  0  0  0  0  0  0
    5.4124    1.7249    0.0000 O   0  0  0  0  0  0  0  0  0  0  0  0
    3.5000    1.2124    0.0000 S   0  0  0  0  0  0  0  0  0  0  0  0
    4.9000    3.6373    0.0000 S   0  0  0  0  0  0  0  0  0  0  0  0
    6.6249    2.4249    0.0000 C   0  0  0  0  0  0  0  0  0  0  0  0
    2.1000    1.2124    0.0000 C   0  0  0  0  0  0  0  0  0  0  0  0
    6.6249    3.8249    0.0000 C   0  0  0  0  0  0  0  0  0  0  0  0
    7.8373    1.7249    0.0000 C   0  0  0  0  0  0  0  0  0  0  0  0
    1.4000    0.0000    0.0000 C   0  0  0  0  0  0  0  0  0  0  0  0
    7.8373    4.5249    0.0000 C   0  0  0  0  0  0  0  0  0  0  0  0
    9.0497    2.4249    0.0000 C   0  0  0  0  0  0  0  0  0  0  0  0
    8.1284    0.3555    0.0000 C   0  0  0  0  0  0  0  0  0  0  0  0
    0.0000    0.0000    0.0000 C   0  0  0  0  0  0  0  0  0  0  0  0
    9.0497    3.8249    0.0000 C   0  0  0  0  0  0  0  0  0  0  0  0
   10.0901    1.4881    0.0000 S   0  0  0  0  0  0  0  0  0  0  0  0
    9.5207    0.2091    0.0000 C   0  0  0  0  0  0  0  0  0  0  0  0
  1  2  1  0  0  0  0 
  2  3  1  0  0  0  0 
  2  4  1  0  0  0  0 
  2  5  2  0  0  0  0 
  3  6  1  0  0  0  0 
  4  7  1  0  0  0  0 
  6  8  1  0  0  0  0 
  9  6  2  0  0  0  0 
  7 10  1  0  0  0  0 
  8 11  2  0  0  0  0 
 12  9  1  0  0  0  0 
  9 13  1  0  0  0  0 
 10 14  1  0  0  0  0 
 11 15  1  0  0  0  0 
 12 16  1  0  0  0  0 
 12 15  2  0  0  0  0 
 13 17  2  0  0  0  0 
 17 16  1  0  0  0  0 
M  END
> <Name>
Phosphonodithioic acid, methyl-, O-(benzo(b)thien-4-yl) S-propyl ester

> <Source>
Name2DMolFile

> <Tox>
3.782

> <CAS>
18729-79-8

$$$$

  CDK

  8  7  0  0  0  0  0  0  0  0999 V2000
    3.0964   -0.3942    0.1599 C   0  0  0  0  0  0  0  0  0  0  0  0
    1.8331    0.3119   -0.1446 C   0  0  0  0  0  0  0  0  0  0  0  0
    4.1385   -0.1310   -0.3979 O   0  0  0  0  0  0  0  0  0  0  0  0
    0.7015    0.0062    0.4957 C   0  0  0  0  0  0  0  0  0  0  0  0
   -0.5862    0.7023    0.2373 C   0  0  0  0  0  0  0  0  0  0  0  0
   -1.7319   -0.2902    0.1033 C   0  0  0  0  0  0  0  0  0  0  0  0
   -3.0549    0.4241   -0.1226 C   0  0  0  0  0  0  0  0  0  0  0  0
   -4.1958   -0.5582   -0.2619 C   0  0  0  0  0  0  0  0  0  0  0  0
  1  2  1  0  0  0  0 
  1  3  2  0  0  0  0 
  2  4  2  0  0  0  0 
  4  5  1  0  0  0  0 
  5  6  1  0  0  0  0 
  6  7  1  0  0  0  0 
  7  8  1  0  0  0  0 
M  END
> <Name>
2-Heptenal, (2E)-

> <Source>
DougDB3DMolFile

> <Tox>
1.936

> <CAS>
18829-55-5

$$$$

  CDK

 23 25  0  0  0  0  0  0  0  0999 V2000
    8.5946    1.7340   10.0305 O   0  0  0  0  0  0  0  0  0  0  0  0
    9.1193    0.6290   10.6299 C   0  0  0  0  0  0  0  0  0  0  0  0
    9.2568    2.9654   10.3230 C   0  0  0  0  0  0  0  0  0  0  0  0
   10.0841    0.5900   11.3799 O   0  0  0  0  0  0  0  0  0  0  0  0
    8.3660   -0.5986   10.2671 C   0  0  0  0  0  0  0  0  0  0  0  0
    8.5947    4.0760    9.6168 C   0  0  0  0  0  0  0  0  0  0  0  0
    9.0879   -1.7713    9.6847 C   0  0  0  0  0  0  0  0  0  0  0  0
    8.1662   -0.9532    8.8284 C   0  0  0  0  0  0  0  0  0  0  0  0
    8.8948    4.5616    8.3217 C   0  0  0  0  0  0  0  0  0  0  0  0
    7.5584    4.8502   10.0846 C   0  0  0  0  0  0  0  0  0  0  0  0
    8.6720   -3.1512   10.0751 C   0  0  0  0  0  0  0  0  0  0  0  0
   10.5615   -1.6335    9.4938 C   0  0  0  0  0  0  0  0  0  0  0  0
    6.8381   -1.5188    8.4476 C   0  0  0  0  0  0  0  0  0  0  0  0
    8.7529   -0.0767    7.7716 C   0  0  0  0  0  0  0  0  0  0  0  0
    8.0271    5.5694    8.1263 C   0  0  0  0  0  0  0  0  0  0  0  0
    7.2025    5.7802    9.1601 O   0  0  0  0  0  0  0  0  0  0  0  0
    7.8149    6.5051    6.9525 C   0  0  0  0  0  0  0  0  0  0  0  0
    6.8321    5.9931    5.9543 C   0  0  0  0  0  0  0  0  0  0  0  0
    5.4783    6.3024    6.0865 C   0  0  0  0  0  0  0  0  0  0  0  0
    7.2666    5.2055    4.8881 C   0  0  0  0  0  0  0  0  0  0  0  0
    4.5591    5.8239    5.1529 C   0  0  0  0  0  0  0  0  0  0  0  0
    6.3473    4.7271    3.9545 C   0  0  0  0  0  0  0  0  0  0  0  0
    4.9936    5.0363    4.0869 C   0  0  0  0  0  0  0  0  0  0  0  0
  1  2  1  0  0  0  0 
  1  3  1  0  0  0  0 
  4  2  2  0  0  0  0 
  5  2  1  0  0  0  0 
  3  6  1  0  0  0  0 
  7  5  1  0  0  0  0 
  8  5  1  0  0  0  0 
  6  9  1  0  0  0  0 
  6 10  2  0  0  0  0 
  7  8  1  0  0  0  0 
  7 11  1  0  0  0  0 
  7 12  1  0  0  0  0 
  8 13  1  0  0  0  0 
  8 14  1  0  0  0  0 
  9 15  2  0  0  0  0 
 16 10  1  0  0  0  0 
 16 15  1  0  0  0  0 
 15 17  1  0  0  0  0 
 17 18  1  0  0  0  0 
 18 19  2  0  0  0  0 
 18 20  1  0  0  0  0 
 19 21  1  0  0  0  0 
 20 22  2  0  0  0  0 
 21 23  2  0  0  0  0 
 22 23  1  0  0  0  0 
M  END
> <Name>
Cyclopropanecarboxylic acid, 2,2,3,3-tetramethyl-, (5-(phenylmethyl)-3-furanyl)methyl ester

> <Source>
Chemidplus3DMolFile

> <Tox>
3.345

> <CAS>
18877-89-9

$$$$

  CDK

 11 10  0  0  0  0  0  0  0  0999 V2000
   -3.8343   -0.7548   -0.3125 C   0  0  0  0  0  0  0  0  0  0  0  0
   -3.1542    0.4148    0.4145 C   0  0  0  0  0  0  0  0  0  0  0  0
   -3.2865   -2.0020    0.0148 O   0  0  0  0  0  0  0  0  0  0  0  0
   -1.9238    0.6537   -0.2509 O   0  0  0  0  0  0  0  0  0  0  0  0
   -1.1308    1.6512    0.3730 C   0  0  0  0  0  0  0  0  0  0  0  0
    0.2135    1.6908   -0.3634 C   0  0  0  0  0  0  0  0  0  0  0  0
    1.0585    0.7313    0.2509 O   0  0  0  0  0  0  0  0  0  0  0  0
    2.3066    0.5829   -0.4098 C   0  0  0  0  0  0  0  0  0  0  0  0
    3.1038   -0.4923    0.3430 C   0  0  0  0  0  0  0  0  0  0  0  0
    4.5723   -0.3887   -0.0365 C   0  0  0  0  0  0  0  0  0  0  0  0
    2.5752   -1.8828    0.0325 C   0  0  0  0  0  0  0  0  0  0  0  0
  1  2  1  0  0  0  0 
  1  3  1  0  0  0  0 
  2  4  1  0  0  0  0 
  4  5  1  0  0  0  0 
  5  6  1  0  0  0  0 
  6  7  1  0  0  0  0 
  7  8  1  0  0  0  0 
  8  9  1  0  0  0  0 
  9 10  1  0  0  0  0 
  9 11  1  0  0  0  0 
M  END
> <Name>
Ethanol, 2-(2-(2-methylpropoxy)ethoxy)-

> <Source>
DougDB3DMolFile

> <Tox>
1.536

> <CAS>
18912-80-6

$$$$

  CDK

 13 12  0  0  0  0  0  0  0  0999 V2000
   -0.2248   -0.1124    2.4701 Si  0  0  0  0  0  0  0  0  0  0  0  0
   -1.6677    0.0812    3.6521 C   0  0  0  0  0  0  0  0  0  0  0  0
    0.5223   -1.8207    2.6695 C   0  0  0  0  0  0  0  0  0  0  0  0
    1.0737    1.1860    2.8506 C   0  0  0  0  0  0  0  0  0  0  0  0
   -0.8278    0.1045    0.7076 C   0  0  0  0  0  0  0  0  0  0  0  0
   -1.3443   -0.0676    5.1364 C   0  0  0  0  0  0  0  0  0  0  0  0
   -0.4099   -2.9975    2.3943 C   0  0  0  0  0  0  0  0  0  0  0  0
    0.6238    2.6399    2.7339 C   0  0  0  0  0  0  0  0  0  0  0  0
    0.2305   -0.0238   -0.3847 C   0  0  0  0  0  0  0  0  0  0  0  0
   -2.5160    0.1520    5.9124 O   0  0  0  0  0  0  0  0  0  0  0  0
    0.3003   -4.2220    2.5346 O   0  0  0  0  0  0  0  0  0  0  0  0
    1.6903    3.5082    3.0973 O   0  0  0  0  0  0  0  0  0  0  0  0
   -0.3746    0.1131   -1.6648 O   0  0  0  0  0  0  0  0  0  0  0  0
  1  2  1  0  0  0  0 
  1  3  1  0  0  0  0 
  1  4  1  0  0  0  0 
  1  5  1  0  0  0  0 
  2  6  1  0  0  0  0 
  3  7  1  0  0  0  0 
  4  8  1  0  0  0  0 
  5  9  1  0  0  0  0 
 10  6  1  0  0  0  0 
 11  7  1  0  0  0  0 
 12  8  1  0  0  0  0 
 13  9  1  0  0  0  0 
M  END
> <Name>
Ethanol, 2,2',2'',2'''-silanetetrayltetrakis-

> <Source>
Chemidplus3DMolFile

> <Tox>
1.477

> <CAS>
18928-76-2

$$$$

  CDK

  7  6  0  0  0  0  0  0  0  0999 V2000
    1.8170    0.1828    0.3241 C   0  0  0  0  0  0  0  0  0  0  0  0
    0.5928   -0.5416   -0.2827 C   0  0  0  0  0  0  0  0  0  0  0  0
    1.9985    1.4725   -0.1905 O   0  0  0  0  0  0  0  0  0  0  0  0
    0.6384   -2.0244    0.0706 C   0  0  0  0  0  0  0  0  0  0  0  0
   -0.5544    0.0900    0.2888 O   0  0  0  0  0  0  0  0  0  0  0  0
   -1.7288   -0.0167   -0.5023 C   0  0  0  0  0  0  0  0  0  0  0  0
   -2.8496    0.6493    0.2735 C   0  0  0  0  0  0  0  0  0  0  0  0
  1  2  1  0  0  0  0 
  1  3  1  0  0  0  0 
  2  4  1  0  0  0  0 
  2  5  1  0  0  0  0 
  5  6  1  0  0  0  0 
  6  7  1  0  0  0  0 
M  END
> <Name>
1-Propanol, 2-ethoxy-

> <Source>
DougDB3DMolFile

> <Tox>
1.166

> <CAS>
19089-47-5

$$$$

  CDK

 19 19  0  0  0  0  0  0  0  0999 V2000
   -2.7263    0.2931    0.0000 O   0  0  0  0  0  0  0  0  0  0  0  0
   -2.7263   -0.5319    0.0000 C   0  0  0  0  0  0  0  0  0  0  0  0
   -2.0118   -0.9444    0.0000 O   0  0  0  0  0  0  0  0  0  0  0  0
   -3.4407   -0.9444    0.0000 C   0  0  0  0  0  0  0  0  0  0  0  0
   -1.2973   -0.5319    0.0000 C   0  0  0  0  0  0  0  0  0  0  0  0
   -0.5829   -0.1194    0.0000 C   0  0  0  0  0  0  0  0  0  0  0  0
    0.1316    0.2931    0.0000 N   0  0  0  0  0  0  0  0  0  0  0  0
    0.1316    1.1181    0.0000 C   0  0  0  0  0  0  0  0  0  0  0  0
    0.8461   -0.1194    0.0000 C   0  0  0  0  0  0  0  0  0  0  0  0
    0.8461    1.5306    0.0000 C   0  0  0  0  0  0  0  0  0  0  0  0
   -0.5829    1.5306    0.0000 C   0  0  0  0  0  0  0  0  0  0  0  0
    1.5606   -0.5319    0.0000 C   0  0  0  0  0  0  0  0  0  0  0  0
    0.8461    2.3556    0.0000 C   0  0  0  0  0  0  0  0  0  0  0  0
   -0.5829    2.3556    0.0000 C   0  0  0  0  0  0  0  0  0  0  0  0
    2.2750   -0.9444    0.0000 O   0  0  0  0  0  0  0  0  0  0  0  0
    0.1316    2.7681    0.0000 C   0  0  0  0  0  0  0  0  0  0  0  0
    2.2750   -1.7694    0.0000 C   0  0  0  0  0  0  0  0  0  0  0  0
    1.5606   -2.1819    0.0000 O   0  0  0  0  0  0  0  0  0  0  0  0
    2.9895   -2.1819    0.0000 C   0  0  0  0  0  0  0  0  0  0  0  0
  1  2  2  0  0  0  0 
  2  3  1  0  0  0  0 
  2  4  1  0  0  0  0 
  3  5  1  0  0  0  0 
  5  6  1  0  0  0  0 
  6  7  1  0  0  0  0 
  7  8  1  0  0  0  0 
  7  9  1  0  0  0  0 
  8 10  1  0  0  0  0 
  8 11  2  0  0  0  0 
  9 12  1  0  0  0  0 
 10 13  2  0  0  0  0 
 14 11  1  0  0  0  0 
 12 15  1  0  0  0  0 
 13 16  1  0  0  0  0 
 16 14  2  0  0  0  0 
 15 17  1  0  0  0  0 
 17 18  2  0  0  0  0 
 17 19  1  0  0  0  0 
M  END
> <Name>
Ethanol, 2,2'-(phenylimino)bis-, diacetate (ester)

> <Source>
Smiles

> <Tox>
2.091

> <CAS>
19249-34-4

$$$$

  CDK

 21 22  0  0  0  0  0  0  0  0999 V2000
    0.0114    0.7340   -1.5933 C   0  0  0  0  0  0  0  0  0  0  0  0
   -1.2653    0.3730   -0.8954 C   0  0  0  0  0  0  0  0  0  0  0  0
    1.2384    0.5429   -0.7548 C   0  0  0  0  0  0  0  0  0  0  0  0
   -1.5599   -0.9620   -0.5397 C   0  0  0  0  0  0  0  0  0  0  0  0
   -2.2361    1.3423   -0.6236 C   0  0  0  0  0  0  0  0  0  0  0  0
    2.2432   -0.3819   -1.1148 C   0  0  0  0  0  0  0  0  0  0  0  0
    1.4462    1.3103    0.3950 C   0  0  0  0  0  0  0  0  0  0  0  0
   -2.7730   -1.2856    0.0915 C   0  0  0  0  0  0  0  0  0  0  0  0
   -0.6315   -1.9100   -0.8453 O   0  0  0  0  0  0  0  0  0  0  0  0
   -3.4449    1.0289   -0.0021 C   0  0  0  0  0  0  0  0  0  0  0  0
   -1.9981    2.9610   -1.0438 Cl  0  0  0  0  0  0  0  0  0  0  0  0
    3.3795   -0.5530   -0.3058 C   0  0  0  0  0  0  0  0  0  0  0  0
    2.0773   -1.0721   -2.2784 O   0  0  0  0  0  0  0  0  0  0  0  0
    2.5716    1.1479    1.2027 C   0  0  0  0  0  0  0  0  0  0  0  0
    0.3423    2.5005    0.8446 Cl  0  0  0  0  0  0  0  0  0  0  0  0
   -3.7061   -0.2854    0.3594 C   0  0  0  0  0  0  0  0  0  0  0  0
   -3.1205   -2.8763    0.5278 Cl  0  0  0  0  0  0  0  0  0  0  0  0
    3.5302    0.2070    0.8531 C   0  0  0  0  0  0  0  0  0  0  0  0
    4.5713   -1.6718   -0.7186 Cl  0  0  0  0  0  0  0  0  0  0  0  0
   -5.1515   -0.6770    1.1157 Cl  0  0  0  0  0  0  0  0  0  0  0  0
    4.8844   -0.0107    1.8198 Cl  0  0  0  0  0  0  0  0  0  0  0  0
  1  2  1  0  0  0  0 
  1  3  1  0  0  0  0 
  4  2  1  0  0  0  0 
  2  5  2  0  0  0  0 
  6  3  1  0  0  0  0 
  3  7  2  0  0  0  0 
  4  8  2  0  0  0  0 
  4  9  1  0  0  0  0 
  5 10  1  0  0  0  0 
  5 11  1  0  0  0  0 
  6 12  2  0  0  0  0 
  6 13  1  0  0  0  0 
  7 14  1  0  0  0  0 
  7 15  1  0  0  0  0 
 16  8  1  0  0  0  0 
  8 17  1  0  0  0  0 
 10 16  2  0  0  0  0 
 18 12  1  0  0  0  0 
 12 19  1  0  0  0  0 
 14 18  2  0  0  0  0 
 16 20  1  0  0  0  0 
 18 21  1  0  0  0  0 
M  END
> <Name>
Phenol, 2,2'-methylenebis(3,5,6-trichloro-

> <Source>
DougDB3DMolFile

> <Tox>
3.609

> <CAS>
19386-45-9

$$$$

  CDK

 11 11  0  0  0  0  0  0  0  0999 V2000
    1.0241    0.9273    0.0000 C   0  0  0  0  0  0  0  0  0  0  0  0
   -0.3256    1.2789    0.0000 C   0  0  0  0  0  0  0  0  0  0  0  0
    1.3457   -0.4376    0.0000 C   0  0  0  0  0  0  0  0  0  0  0  0
    2.0873    1.7692    0.0000 O   0  0  0  0  0  0  0  0  0  0  0  0
   -1.3314    0.2999    0.0000 C   0  0  0  0  0  0  0  0  0  0  0  0
   -0.9099    3.1555    0.0000 I   0  0  0  0  0  0  0  0  0  0  0  0
    0.3848   -1.4258    0.0000 C   0  0  0  0  0  0  0  0  0  0  0  0
    3.2426   -0.9406    0.0000 I   0  0  0  0  0  0  0  0  0  0  0  0
   -0.9502   -1.0444    0.0000 C   0  0  0  0  0  0  0  0  0  0  0  0
   -2.6015    0.7800    0.0000 O   0  0  0  0  0  0  0  0  0  0  0  0
   -2.2757   -2.5001    0.0000 I   0  0  0  0  0  0  0  0  0  0  0  0
  1  2  1  0  0  0  0 
  1  3  2  0  0  0  0 
  1  4  1  0  0  0  0 
  2  5  2  0  0  0  0 
  2  6  1  0  0  0  0 
  7  3  1  0  0  0  0 
  3  8  1  0  0  0  0 
  5  9  1  0  0  0  0 
  5 10  1  0  0  0  0 
  9  7  2  0  0  0  0 
  9 11  1  0  0  0  0 
M  END
> <Name>
1,3-Benzenediol, 2,4,6-triiodo- (9CI)

> <Source>
DougDB3DMolFile

> <Tox>
1.774

> <CAS>
19403-92-0

$$$$

  CDK

 14 14  0  0  0  0  0  0  0  0999 V2000
    0.0006    2.1119   -0.1066 C   0  0  0  0  0  0  0  0  0  0  0  0
   -1.2085    1.4061   -0.0699 C   0  0  0  0  0  0  0  0  0  0  0  0
    1.2091    1.4055   -0.0675 C   0  0  0  0  0  0  0  0  0  0  0  0
    0.0010    3.5232   -0.2995 N   0  0  0  0  0  0  0  0  0  0  0  0
   -1.2011    0.0143    0.0120 C   0  0  0  0  0  0  0  0  0  0  0  0
    1.2011    0.0137    0.0127 C   0  0  0  0  0  0  0  0  0  0  0  0
   -0.0002   -0.7118    0.0705 C   0  0  0  0  0  0  0  0  0  0  0  0
   -2.5469   -0.6698    0.0303 N   0  0  0  0  0  0  0  0  0  0  0  0
    2.5467   -0.6709    0.0301 N   0  0  0  0  0  0  0  0  0  0  0  0
   -0.0013   -2.1956    0.1908 C   0  0  0  0  0  0  0  0  0  0  0  0
   -3.3152   -0.4062    0.9312 O   0  0  0  0  0  0  0  0  0  0  0  0
   -2.8319   -1.4411   -0.8596 O   0  0  0  0  0  0  0  0  0  0  0  0
    3.3164   -0.4067    0.9296 O   0  0  0  0  0  0  0  0  0  0  0  0
    2.8303   -1.4430   -0.8595 O   0  0  0  0  0  0  0  0  0  0  0  0
  1  2  1  0  0  0  0 
  1  3  2  0  0  0  0 
  1  4  1  0  0  0  0 
  2  5  2  0  0  0  0 
  6  3  1  0  0  0  0 
  5  7  1  0  0  0  0 
  5  8  1  0  0  0  0 
  7  6  2  0  0  0  0 
  6  9  1  0  0  0  0 
  7 10  1  0  0  0  0 
  8 11  2  0  0  0  0 
  8 12  1  0  0  0  0 
  9 13  2  0  0  0  0 
  9 14  1  0  0  0  0 
M  CHG  1   8   1
M  CHG  1   9   1
M  CHG  1  12  -1
M  CHG  1  14  -1
M  END
> <Name>
Benzenamine, 4-methyl-3,5-dinitro- (9CI)

> <Source>
DougDB3DMolFile

> <Tox>
2.313

> <CAS>
19406-51-0

$$$$

  CDK

 14 14  0  0  0  0  0  0  0  0999 V2000
    1.7487    1.4988    0.0000 C   0  0  0  0  0  0  0  0  0  0  0  0
    0.8993    0.9992    0.0000 C   0  0  0  0  0  0  0  0  0  0  0  0
    2.5980    1.0492    0.0000 O   0  0  0  0  0  0  0  0  0  0  0  0
    1.7487    2.4981    0.0000 O   0  0  0  0  0  0  0  0  0  0  0  0
    0.0000    1.4988    0.0000 C   0  0  0  0  0  0  0  0  0  0  0  0
    0.8993    0.0000    0.0000 C   0  0  0  0  0  0  0  0  0  0  0  0
    3.4973    1.5488    0.0000 C   0  0  0  0  0  0  0  0  0  0  0  0
    4.3466    1.0492    0.0000 C   0  0  0  0  0  0  0  0  0  0  0  0
    5.1960    1.5488    0.0000 N   0  0  0  0  0  0  0  0  0  0  0  0
    6.0953    1.0492    0.0000 C   0  0  0  0  0  0  0  0  0  0  0  0
    5.1960    2.5480    0.0000 C   0  0  0  0  0  0  0  0  0  0  0  0
    6.9446    1.5488    0.0000 C   0  0  0  0  0  0  0  0  0  0  0  0
    6.0453    3.0477    0.0000 C   0  0  0  0  0  0  0  0  0  0  0  0
    6.9446    2.5480    0.0000 C   0  0  0  0  0  0  0  0  0  0  0  0
  1  2  1  0  0  0  0 
  1  3  1  0  0  0  0 
  1  4  2  0  0  0  0 
  2  5  2  0  0  0  0 
  2  6  1  0  0  0  0 
  3  7  1  0  0  0  0 
  7  8  1  0  0  0  0 
  8  9  1  0  0  0  0 
 10  9  1  0  0  0  0 
  9 11  1  0  0  0  0 
 12 10  1  0  0  0  0 
 11 13  1  0  0  0  0 
 14 12  1  0  0  0  0 
 13 14  1  0  0  0  0 
M  END
> <Name>
2-Propenoic acid, 2-methyl-, 2-(1-piperidinyl)ethyl ester (9CI)

> <Source>
NIST2DMolFile

> <Tox>
1.747

> <CAS>
19416-48-9

$$$$

  CDK

 22 23  0  0  0  0  0  0  0  0999 V2000
    6.9087   -2.1293    0.0000 N   0  0  0  0  0  0  0  0  0  0  0  0
    8.1585   -2.5459    0.0000 N   0  0  0  0  0  0  0  0  0  0  0  0
    6.9087   -0.7985    0.0000 C   0  0  0  0  0  0  0  0  0  0  0  0
    5.7630   -2.8005    0.0000 C   0  0  0  0  0  0  0  0  0  0  0  0
    8.9107   -1.4697    0.0000 C   0  0  0  0  0  0  0  0  0  0  0  0
    8.1585   -0.3935    0.0000 O   0  0  0  0  0  0  0  0  0  0  0  0
    5.8440   -0.0000    0.0000 O   0  0  0  0  0  0  0  0  0  0  0  0
    4.6058   -2.1293    0.0000 C   0  0  0  0  0  0  0  0  0  0  0  0
    5.7630   -4.1313    0.0000 C   0  0  0  0  0  0  0  0  0  0  0  0
   10.2415   -1.4697    0.0000 C   0  0  0  0  0  0  0  0  0  0  0  0
    3.4601   -2.8005    0.0000 C   0  0  0  0  0  0  0  0  0  0  0  0
    4.6058   -4.8025    0.0000 C   0  0  0  0  0  0  0  0  0  0  0  0
    6.9087   -4.8141    0.0000 Cl  0  0  0  0  0  0  0  0  0  0  0  0
   10.2415   -0.1389    0.0000 C   0  0  0  0  0  0  0  0  0  0  0  0
   10.2415   -2.8005    0.0000 C   0  0  0  0  0  0  0  0  0  0  0  0
   11.5723   -1.4697    0.0000 C   0  0  0  0  0  0  0  0  0  0  0  0
    2.2913   -2.1177    0.0000 O   0  0  0  0  0  0  0  0  0  0  0  0
    3.4601   -4.1313    0.0000 C   0  0  0  0  0  0  0  0  0  0  0  0
    1.1572   -2.7773    0.0000 C   0  0  0  0  0  0  0  0  0  0  0  0
    2.2913   -4.8141    0.0000 Cl  0  0  0  0  0  0  0  0  0  0  0  0
    0.0000   -2.1177    0.0000 C   0  0  0  0  0  0  0  0  0  0  0  0
    1.1572   -4.1197    0.0000 C   0  0  0  0  0  0  0  0  0  0  0  0
  1  2  1  0  0  0  0 
  1  3  1  0  0  0  0 
  1  4  1  0  0  0  0 
  2  5  2  0  0  0  0 
  3  6  1  0  0  0  0 
  3  7  2  0  0  0  0 
  4  8  1  0  0  0  0 
  4  9  2  0  0  0  0 
  6  5  1  0  0  0  0 
  5 10  1  0  0  0  0 
  8 11  2  0  0  0  0 
  9 12  1  0  0  0  0 
  9 13  1  0  0  0  0 
 10 14  1  0  0  0  0 
 10 15  1  0  0  0  0 
 10 16  1  0  0  0  0 
 11 17  1  0  0  0  0 
 11 18  1  0  0  0  0 
 12 18  2  0  0  0  0 
 17 19  1  0  0  0  0 
 18 20  1  0  0  0  0 
 19 21  1  0  0  0  0 
 19 22  1  0  0  0  0 
M  END
> <Name>
1,3,4-Oxadiazol-2(3H)-one, 3-(2,4-dichloro-5-(1-methylethoxy)phenyl)-5-(1,1-dimethylethyl)-

> <Source>
DSSTox2DMolFile

> <Tox>
1.994

> <CAS>
19666-30-9

$$$$

  CDK

 18 19  0  0  0  0  0  0  0  0999 V2000
   -0.9530    0.4105    5.9897 O   0  0  0  0  0  0  0  0  0  0  0  0
   -1.4047   -0.8975    5.8609 N   0  0  0  0  0  0  0  0  0  0  0  0
    0.2556    0.5291    5.3829 C   0  0  0  0  0  0  0  0  0  0  0  0
   -0.4465   -1.5280    5.1759 C   0  0  0  0  0  0  0  0  0  0  0  0
    0.5835   -0.6685    4.8722 C   0  0  0  0  0  0  0  0  0  0  0  0
   -0.5965   -2.9209    4.8640 C   0  0  0  0  0  0  0  0  0  0  0  0
    1.8333   -0.9446    4.1336 C   0  0  0  0  0  0  0  0  0  0  0  0
    0.4741   -3.4159    4.1566 O   0  0  0  0  0  0  0  0  0  0  0  0
   -1.5752   -3.6282    5.1834 O   0  0  0  0  0  0  0  0  0  0  0  0
    2.8526   -1.3089    4.7397 O   0  0  0  0  0  0  0  0  0  0  0  0
    1.8997   -0.7828    2.6900 C   0  0  0  0  0  0  0  0  0  0  0  0
    0.4413   -4.7978    3.7841 C   0  0  0  0  0  0  0  0  0  0  0  0
    0.7699   -0.3738    1.9814 C   0  0  0  0  0  0  0  0  0  0  0  0
    3.0932   -1.0361    2.0138 C   0  0  0  0  0  0  0  0  0  0  0  0
    1.7045   -5.1326    3.0199 C   0  0  0  0  0  0  0  0  0  0  0  0
    0.8335   -0.2183    0.5966 C   0  0  0  0  0  0  0  0  0  0  0  0
    3.1567   -0.8805    0.6291 C   0  0  0  0  0  0  0  0  0  0  0  0
    2.0268   -0.4716   -0.0794 C   0  0  0  0  0  0  0  0  0  0  0  0
  1  2  1  0  0  0  0 
  1  3  1  0  0  0  0 
  2  4  2  0  0  0  0 
  5  3  2  0  0  0  0 
  5  4  1  0  0  0  0 
  4  6  1  0  0  0  0 
  5  7  1  0  0  0  0 
  8  6  1  0  0  0  0 
  9  6  2  0  0  0  0 
 10  7  2  0  0  0  0 
 11  7  1  0  0  0  0 
  8 12  1  0  0  0  0 
 11 13  2  0  0  0  0 
 11 14  1  0  0  0  0 
 12 15  1  0  0  0  0 
 13 16  1  0  0  0  0 
 14 17  2  0  0  0  0 
 16 18  2  0  0  0  0 
 17 18  1  0  0  0  0 
M  END
> <Name>
3-Isoxazolecarboxylic acid, 4-benzoyl-, ethyl ester

> <Source>
Chemidplus3DMolFile

> <Tox>
2.390

> <CAS>
19688-04-1

$$$$

  CDK

 16 17  0  0  0  0  0  0  0  0999 V2000
    2.3055   -0.7929    0.0000 Cl  0  0  0  0  0  0  0  0  0  0  0  0
    1.5910   -0.3804    0.0000 C   0  0  0  0  0  0  0  0  0  0  0  0
    1.5910    0.4446    0.0000 C   0  0  0  0  0  0  0  0  0  0  0  0
    0.8765   -0.7929    0.0000 C   0  0  0  0  0  0  0  0  0  0  0  0
    2.3055    0.8571    0.0000 Cl  0  0  0  0  0  0  0  0  0  0  0  0
    0.8765    0.8571    0.0000 C   0  0  0  0  0  0  0  0  0  0  0  0
    0.8765   -1.6179    0.0000 O   0  0  0  0  0  0  0  0  0  0  0  0
    0.1620   -0.3804    0.0000 C   0  0  0  0  0  0  0  0  0  0  0  0
    0.1620    0.4446    0.0000 C   0  0  0  0  0  0  0  0  0  0  0  0
   -0.6226   -0.6353    0.0000 N   0  0  0  0  0  0  0  0  0  0  0  0
   -0.6226    0.6996    0.0000 N   0  0  0  0  0  0  0  0  0  0  0  0
   -1.1075    0.0321    0.0000 C   0  0  0  0  0  0  0  0  0  0  0  0
   -1.9325    0.0321    0.0000 C   0  0  0  0  0  0  0  0  0  0  0  0
   -1.9325   -0.7929    0.0000 F   0  0  0  0  0  0  0  0  0  0  0  0
   -1.9325    0.8571    0.0000 F   0  0  0  0  0  0  0  0  0  0  0  0
   -2.7575    0.0321    0.0000 F   0  0  0  0  0  0  0  0  0  0  0  0
  1  2  1  0  0  0  0 
  2  3  1  0  0  0  0 
  2  4  2  0  0  0  0 
  3  5  1  0  0  0  0 
  3  6  2  0  0  0  0 
  4  7  1  0  0  0  0 
  4  8  1  0  0  0  0 
  6  9  1  0  0  0  0 
  9  8  2  0  0  0  0 
  8 10  1  0  0  0  0 
  9 11  1  0  0  0  0 
 10 12  2  0  0  0  0 
 11 12  1  0  0  0  0 
 12 13  1  0  0  0  0 
 13 14  1  0  0  0  0 
 13 15  1  0  0  0  0 
 13 16  1  0  0  0  0 
M  END
> <Name>
Benzimidazol-4-ol, 5,6-dichloro-2-(trifluoromethyl)-

> <Source>
Smiles

> <Tox>
3.717

> <CAS>
19690-31-4

$$$$

  CDK

  5  4  0  0  0  0  0  0  0  0999 V2000
    0.0000    0.0000    0.0000 O   0  0  0  0  0  0  0  0  0  0  0  0
    0.9354    0.4157    0.0000 C   0  0  0  0  0  0  0  0  0  0  0  0
    1.8188    0.0000    0.0000 C   0  0  0  0  0  0  0  0  0  0  0  0
    2.7023    0.4157    0.0000 C   0  0  0  0  0  0  0  0  0  0  0  0
    3.6377    0.0000    0.0000 S   0  0  0  0  0  0  0  0  0  0  0  0
  1  2  1  0  0  0  0 
  2  3  1  0  0  0  0 
  3  4  1  0  0  0  0 
  4  5  1  0  0  0  0 
M  END
> <Name>
1-Propanol, 3-mercapto-

> <Source>
NIST2DMolFile

> <Tox>
2.900

> <CAS>
19721-22-3

$$$$

  CDK

  9  9  0  0  0  0  0  0  0  0999 V2000
    0.2688    0.4016   -0.0435 C   0  0  0  0  0  0  0  0  0  0  0  0
   -0.9903   -0.4279   -0.1294 C   0  0  0  0  0  0  0  0  0  0  0  0
    0.3599    1.6087    0.0527 O   0  0  0  0  0  0  0  0  0  0  0  0
    1.3898   -0.3656   -0.1162 O   0  0  0  0  0  0  0  0  0  0  0  0
   -2.3303    0.2251   -0.0065 C   0  0  0  0  0  0  0  0  0  0  0  0
   -1.7609   -0.5322    1.0744 O   0  0  0  0  0  0  0  0  0  0  0  0
    2.6636    0.2807   -0.0413 C   0  0  0  0  0  0  0  0  0  0  0  0
   -3.5267   -0.3570   -0.6996 C   0  0  0  0  0  0  0  0  0  0  0  0
    3.7065   -0.8167   -0.1255 C   0  0  0  0  0  0  0  0  0  0  0  0
  1  2  1  0  0  0  0 
  1  3  2  0  0  0  0 
  1  4  1  0  0  0  0 
  2  5  1  0  0  0  0 
  2  6  1  0  0  0  0 
  4  7  1  0  0  0  0 
  5  8  1  0  0  0  0 
  5  6  1  0  0  0  0 
  7  9  1  0  0  0  0 
M  END
> <Name>
Butyric acid, 2,3-epoxy-, ethyl ester

> <Source>
DougDB3DMolFile

> <Tox>
2.415

> <CAS>
19780-35-9

$$$$

  CDK

 22 25  0  0  0  0  0  0  0  0999 V2000
    0.0000    0.0000    0.0000 C   0  0  0  0  0  0  0  0  0  0  0  0
    0.0600   -0.8600   -1.2600 C   0  0  0  0  0  0  0  0  0  0  0  0
    0.9000   -0.1600   -2.3200 C   0  0  0  0  0  0  0  0  0  0  0  0
    1.1200   -1.0200   -3.5800 C   0  0  0  0  0  0  0  0  0  0  0  0
    0.3000    1.2200   -2.7000 C   0  0  0  0  0  0  0  0  0  0  0  0
    2.3800   -0.0800   -1.8600 C   0  0  0  0  0  0  0  0  0  0  0  0
   -0.1400   -1.3000   -4.4400 C   0  0  0  0  0  0  0  0  0  0  0  0
    1.9600   -2.1800   -3.0800 C   0  0  0  0  0  0  0  0  0  0  0  0
   -0.4400    1.1800   -4.0600 C   0  0  0  0  0  0  0  0  0  0  0  0
    2.9600   -1.5000   -2.1400 C   0  0  0  0  0  0  0  0  0  0  0  0
    2.5200    0.3600   -0.5200 O   0  0  0  0  0  0  0  0  0  0  0  0
   -1.1800   -0.1400   -4.3400 C   0  0  0  0  0  0  0  0  0  0  0  0
   -0.7800   -2.6800   -4.3200 C   0  0  0  0  0  0  0  0  0  0  0  0
    3.1400   -2.2800   -0.9600 O   0  0  0  0  0  0  0  0  0  0  0  0
   -2.3400   -0.4000   -3.4400 C   0  0  0  0  0  0  0  0  0  0  0  0
   -1.6200   -2.8200   -3.0400 C   0  0  0  0  0  0  0  0  0  0  0  0
   -2.5400   -1.6800   -2.8200 C   0  0  0  0  0  0  0  0  0  0  0  0
   -3.2600    0.6200   -3.1800 C   0  0  0  0  0  0  0  0  0  0  0  0
   -3.6400   -1.8800   -1.9800 C   0  0  0  0  0  0  0  0  0  0  0  0
   -4.3600    0.4200   -2.3400 C   0  0  0  0  0  0  0  0  0  0  0  0
   -4.5600   -0.8200   -1.7400 C   0  0  0  0  0  0  0  0  0  0  0  0
   -5.6000   -1.0200   -0.9400 O   0  0  0  0  0  0  0  0  0  0  0  0
  1  2  1  0  0  0  0 
  2  3  1  0  0  0  0 
  3  4  1  0  0  0  0 
  3  5  1  0  0  0  0 
  3  6  1  0  0  0  0 
  4  7  1  0  0  0  0 
  4  8  1  0  0  0  0 
  9  5  1  0  0  0  0 
 10  6  1  0  0  0  0 
  6 11  1  0  0  0  0 
  7 12  1  0  0  0  0 
  7 13  1  0  0  0  0 
  8 10  1  0  0  0  0 
 12  9  1  0  0  0  0 
 10 14  1  0  0  0  0 
 12 15  1  0  0  0  0 
 16 13  1  0  0  0  0 
 15 17  2  0  0  0  0 
 15 18  1  0  0  0  0 
 17 16  1  0  0  0  0 
 17 19  1  0  0  0  0 
 20 18  2  0  0  0  0 
 19 21  2  0  0  0  0 
 21 20  1  0  0  0  0 
 21 22  1  0  0  0  0 
M  END
> <Name>
Gona-1,3,5(10)-triene-3,16-alpha,17-beta-triol, 13-ethyl-

> <Source>
NIH3DMolFile

> <Tox>
1.781

> <CAS>
19882-03-2

$$$$

  CDK

 11 12  0  0  0  0  0  0  0  0999 V2000
    2.6150    0.5127    0.0000 C   0  0  0  0  0  0  0  0  0  0  0  0
    2.6150    1.4357    0.0000 C   0  0  0  0  0  0  0  0  0  0  0  0
    1.7946    0.0000    0.0000 C   0  0  0  0  0  0  0  0  0  0  0  0
    3.5892    0.1538    0.0000 O   0  0  0  0  0  0  0  0  0  0  0  0
    1.7946    1.9997    0.0000 C   0  0  0  0  0  0  0  0  0  0  0  0
    3.5892    1.7433    0.0000 N   0  0  0  0  0  0  0  0  0  0  0  0
    0.9229    0.5127    0.0000 C   0  0  0  0  0  0  0  0  0  0  0  0
    4.1532    0.9229    0.0000 C   0  0  0  0  0  0  0  0  0  0  0  0
    0.9229    1.4357    0.0000 C   0  0  0  0  0  0  0  0  0  0  0  0
    0.0000    0.0000    0.0000 Cl  0  0  0  0  0  0  0  0  0  0  0  0
    5.2299    0.9229    0.0000 O   0  0  0  0  0  0  0  0  0  0  0  0
  1  2  2  0  0  0  0 
  1  3  1  0  0  0  0 
  4  1  1  0  0  0  0 
  5  2  1  0  0  0  0 
  2  6  1  0  0  0  0 
  3  7  2  0  0  0  0 
  8  4  1  0  0  0  0 
  9  5  2  0  0  0  0 
  6  8  1  0  0  0  0 
  7  9  1  0  0  0  0 
  7 10  1  0  0  0  0 
  8 11  2  0  0  0  0 
M  END
> <Name>
2(3H)-Benzoxazolone, 6-chloro- (9CI)

> <Source>
NIST2DMolFile

> <Tox>
2.150

> <CAS>
19932-84-4

$$$$

  CDK

 11 12  0  0  0  0  0  0  0  0999 V2000
    0.0000    0.0000    0.0000 O   0  0  0  0  0  0  0  0  0  0  0  0
    1.2000   -0.1400    0.1200 C   0  0  0  0  0  0  0  0  0  0  0  0
    1.7600   -0.6000    1.3400 N   0  0  0  0  0  0  0  0  0  0  0  0
    2.1200    0.1000   -0.8400 O   0  0  0  0  0  0  0  0  0  0  0  0
    3.1800   -0.6400    1.0200 C   0  0  0  0  0  0  0  0  0  0  0  0
    3.3000   -0.2000   -0.2800 C   0  0  0  0  0  0  0  0  0  0  0  0
    4.2800   -1.0000    1.8200 C   0  0  0  0  0  0  0  0  0  0  0  0
    4.5400   -0.1000   -0.9200 C   0  0  0  0  0  0  0  0  0  0  0  0
    5.5400   -0.9200    1.2000 C   0  0  0  0  0  0  0  0  0  0  0  0
    5.6800   -0.4800   -0.1600 C   0  0  0  0  0  0  0  0  0  0  0  0
    7.3800   -0.3800   -0.9400 Br  0  0  0  0  0  0  0  0  0  0  0  0
  1  2  2  0  0  0  0 
  2  3  1  0  0  0  0 
  2  4  1  0  0  0  0 
  3  5  1  0  0  0  0 
  6  4  1  0  0  0  0 
  5  7  2  0  0  0  0 
  5  6  1  0  0  0  0 
  8  6  2  0  0  0  0 
  7  9  1  0  0  0  0 
 10  8  1  0  0  0  0 
  9 10  2  0  0  0  0 
 10 11  1  0  0  0  0 
M  END
> <Name>
2(3H)-Benzoxazolone, 6-bromo- (9CI)

> <Source>
NIH3DMolFile

> <Tox>
2.330

> <CAS>
19932-85-5

$$$$

  CDK

 13 12  0  0  0  0  0  0  0  0999 V2000
   -2.4242   -0.4630    0.0000 O   0  0  0  0  0  0  0  0  0  0  0  0
   -1.6225   -0.2490    0.0000 P   0  0  0  0  0  0  0  0  0  0  0  0
   -1.9681    0.5157    0.0000 O   0  0  0  0  0  0  0  0  0  0  0  0
   -1.4948   -1.0653    0.0000 O   0  0  0  0  0  0  0  0  0  0  0  0
   -0.8035   -0.0176    0.0000 C   0  0  0  0  0  0  0  0  0  0  0  0
   -1.5234    1.2274    0.0000 C   0  0  0  0  0  0  0  0  0  0  0  0
   -0.7823   -1.4975    0.0000 C   0  0  0  0  0  0  0  0  0  0  0  0
   -0.0306    0.2443    0.0000 C   0  0  0  0  0  0  0  0  0  0  0  0
    0.7622    0.4951    0.0000 C   0  0  0  0  0  0  0  0  0  0  0  0
    0.9182    1.3044    0.0000 O   0  0  0  0  0  0  0  0  0  0  0  0
    1.3182   -0.1136    0.0000 N   0  0  0  0  0  0  0  0  0  0  0  0
    2.1181    0.1062    0.0000 C   0  0  0  0  0  0  0  0  0  0  0  0
    2.9281    0.2791    0.0000 O   0  0  0  0  0  0  0  0  0  0  0  0
  1  2  2  0  0  0  0 
  2  3  1  0  0  0  0 
  2  4  1  0  0  0  0 
  2  5  1  0  0  0  0 
  3  6  1  0  0  0  0 
  4  7  1  0  0  0  0 
  5  8  1  0  0  0  0 
  8  9  1  0  0  0  0 
  9 10  2  0  0  0  0 
  9 11  1  0  0  0  0 
 11 12  1  0  0  0  0 
 12 13  1  0  0  0  0 
M  END
> <Name>
Phosphonic acid, (3-((hydroxymethyl)amino)-3-oxopropyl)-, dimethyl ester

> <Source>
Smiles

> <Tox>
1.211

> <CAS>
20120-33-6

$$$$

  CDK

 19 18  0  0  0  0  0  0  0  0999 V2000
    1.8644    2.9126    0.6594 S   0  0  0  0  0  0  0  0  0  0  0  0
    0.2595    2.8783   -0.6951 P   0  0  0  0  0  0  0  0  0  0  0  0
    3.2224    3.7539   -0.1918 C   0  0  0  0  0  0  0  0  0  0  0  0
   -0.6280    4.2332   -0.6033 O   0  0  0  0  0  0  0  0  0  0  0  0
    0.7461    2.6274   -2.0980 O   0  0  0  0  0  0  0  0  0  0  0  0
   -0.8792    1.5908   -0.1828 C   0  0  0  0  0  0  0  0  0  0  0  0
    2.7705    5.4459   -0.6543 S   0  0  0  0  0  0  0  0  0  0  0  0
   -1.2024    4.6478    0.6227 C   0  0  0  0  0  0  0  0  0  0  0  0
   -2.0987    1.5093   -1.0764 C   0  0  0  0  0  0  0  0  0  0  0  0
    3.0281    6.2488    0.9496 C   0  0  0  0  0  0  0  0  0  0  0  0
   -1.9668    5.9351    0.3988 C   0  0  0  0  0  0  0  0  0  0  0  0
    2.6740    8.0225    0.8654 S   0  0  0  0  0  0  0  0  0  0  0  0
    3.0726    8.7809    2.7808 P   0  0  0  0  0  0  0  0  0  0  0  0
    1.9675    8.2223    3.8294 O   0  0  0  0  0  0  0  0  0  0  0  0
    4.4898    8.4933    3.1973 O   0  0  0  0  0  0  0  0  0  0  0  0
    2.7350   10.5410    2.7463 C   0  0  0  0  0  0  0  0  0  0  0  0
    0.5900    8.4067    3.5560 C   0  0  0  0  0  0  0  0  0  0  0  0
    2.9334   11.1937    4.0979 C   0  0  0  0  0  0  0  0  0  0  0  0
   -0.2215    7.7991    4.6802 C   0  0  0  0  0  0  0  0  0  0  0  0
  1  2  1  0  0  0  0 
  1  3  1  0  0  0  0 
  2  4  1  0  0  0  0 
  2  5  2  0  0  0  0 
  2  6  1  0  0  0  0 
  7  3  1  0  0  0  0 
  4  8  1  0  0  0  0 
  6  9  1  0  0  0  0 
  7 10  1  0  0  0  0 
  8 11  1  0  0  0  0 
 12 10  1  0  0  0  0 
 12 13  1  0  0  0  0 
 13 14  1  0  0  0  0 
 13 15  2  0  0  0  0 
 13 16  1  0  0  0  0 
 14 17  1  0  0  0  0 
 16 18  1  0  0  0  0 
 17 19  1  0  0  0  0 
M  END
> <Name>
Phosphonothioic acid, ethyl-, S,S'-(thiodimethylene) O,O'-diethyl ester

> <Source>
Chemidplus3DMolFile

> <Tox>
5.334

> <CAS>
20395-17-9

$$$$

  CDK

 20 21  0  0  0  0  0  0  0  0999 V2000
    8.1192    0.0000    0.0000 C   0  0  0  0  0  0  0  0  0  0  0  0
    7.6181    0.8520    0.0000 N   0  0  0  0  0  0  0  0  0  0  0  0
    8.1192    1.7040    0.0000 C   0  0  0  0  0  0  0  0  0  0  0  0
    6.6157    0.8520    0.0000 C   0  0  0  0  0  0  0  0  0  0  0  0
    6.1145    1.7040    0.0000 C   0  0  0  0  0  0  0  0  0  0  0  0
    6.1145    0.0000    0.0000 C   0  0  0  0  0  0  0  0  0  0  0  0
    5.1121    1.7040    0.0000 C   0  0  0  0  0  0  0  0  0  0  0  0
    5.1121    0.0000    0.0000 C   0  0  0  0  0  0  0  0  0  0  0  0
    4.6109    0.8520    0.0000 C   0  0  0  0  0  0  0  0  0  0  0  0
    3.6086    0.8520    0.0000 N   0  0  0  0  0  0  0  0  0  0  0  0
    2.6062    0.8520    0.0000 N   0  0  0  0  0  0  0  0  0  0  0  0
    1.7542    1.3532    0.0000 C   0  0  0  0  0  0  0  0  0  0  0  0
    1.7542    2.3556    0.0000 C   0  0  0  0  0  0  0  0  0  0  0  0
    0.9021    0.8520    0.0000 C   0  0  0  0  0  0  0  0  0  0  0  0
    0.9021    2.8568    0.0000 C   0  0  0  0  0  0  0  0  0  0  0  0
    0.0000    1.3532    0.0000 C   0  0  0  0  0  0  0  0  0  0  0  0
    0.9021    3.8591    0.0000 C   0  0  0  0  0  0  0  0  0  0  0  0
    0.0000    2.3556    0.0000 C   0  0  0  0  0  0  0  0  0  0  0  0
    1.7542    4.3603    0.0000 O   0  0  0  0  0  0  0  0  0  0  0  0
    0.0000    4.3603    0.0000 O   0  0  0  0  0  0  0  0  0  0  0  0
  1  2  1  0  0  0  0 
  2  3  1  0  0  0  0 
  2  4  1  0  0  0  0 
  5  4  2  0  0  0  0 
  4  6  1  0  0  0  0 
  7  5  1  0  0  0  0 
  6  8  2  0  0  0  0 
  9  7  2  0  0  0  0 
  8  9  1  0  0  0  0 
  9 10  1  0  0  0  0 
 10 11  2  0  0  0  0 
 11 12  1  0  0  0  0 
 13 12  2  0  0  0  0 
 12 14  1  0  0  0  0 
 15 13  1  0  0  0  0 
 14 16  2  0  0  0  0 
 17 15  1  0  0  0  0 
 18 15  2  0  0  0  0 
 16 18  1  0  0  0  0 
 19 17  1  0  0  0  0 
 17 20  2  0  0  0  0 
M  END
> <Name>
Benzoic acid, m-((p-(dimethylamino)phenyl)azo)-

> <Source>
NIST2DMolFile

> <Tox>
1.855

> <CAS>
20691-84-3

$$$$

  CDK

 17 17  0  0  0  0  0  0  0  0999 V2000
    1.9964    2.5953    0.0000 C   0  0  0  0  0  0  0  0  0  0  0  0
    2.4955    3.4438    0.0000 N   0  0  0  0  0  0  0  0  0  0  0  0
    2.4955    1.7468    0.0000 N   0  0  0  0  0  0  0  0  0  0  0  0
    0.9982    2.5953    0.0000 C   0  0  0  0  0  0  0  0  0  0  0  0
    3.4937    3.4438    0.0000 C   0  0  0  0  0  0  0  0  0  0  0  0
    1.9465    0.8485    0.0000 C   0  0  0  0  0  0  0  0  0  0  0  0
    0.9982    3.5935    0.0000 Cl  0  0  0  0  0  0  0  0  0  0  0  0
    0.9982    1.5971    0.0000 Cl  0  0  0  0  0  0  0  0  0  0  0  0
    0.0000    2.5953    0.0000 Cl  0  0  0  0  0  0  0  0  0  0  0  0
    3.9928    4.3421    0.0000 C   0  0  0  0  0  0  0  0  0  0  0  0
    3.9928    2.5953    0.0000 C   0  0  0  0  0  0  0  0  0  0  0  0
    2.4456    0.0000    0.0000 O   0  0  0  0  0  0  0  0  0  0  0  0
    4.9910    4.3421    0.0000 C   0  0  0  0  0  0  0  0  0  0  0  0
    4.9910    2.5953    0.0000 C   0  0  0  0  0  0  0  0  0  0  0  0
    5.4901    5.1906    0.0000 Cl  0  0  0  0  0  0  0  0  0  0  0  0
    5.4901    3.4438    0.0000 C   0  0  0  0  0  0  0  0  0  0  0  0
    6.4882    3.4438    0.0000 Cl  0  0  0  0  0  0  0  0  0  0  0  0
  1  2  1  0  0  0  0 
  1  3  1  0  0  0  0 
  1  4  1  0  0  0  0 
  2  5  1  0  0  0  0 
  3  6  1  0  0  0  0 
  4  7  1  0  0  0  0 
  4  8  1  0  0  0  0 
  4  9  1  0  0  0  0 
 10  5  2  0  0  0  0 
  5 11  1  0  0  0  0 
  6 12  2  0  0  0  0 
 13 10  1  0  0  0  0 
 11 14  2  0  0  0  0 
 13 15  1  0  0  0  0 
 16 13  2  0  0  0  0 
 14 16  1  0  0  0  0 
 16 17  1  0  0  0  0 
M  END
> <Name>
Formamide, N-(1-(3,4-dichloroanilino)-2,2,2-trichloroethyl)-

> <Source>
NIST2DMolFile

> <Tox>
2.129

> <CAS>
20856-57-9

$$$$

  CDK

 28 30  0  0  0  0  0  0  0  0999 V2000
    7.6327    2.9125    0.0000 N   0  0  0  0  0  0  0  0  0  0  0  0
    8.4863    3.4146    0.0000 C   0  0  0  0  0  0  0  0  0  0  0  0
    7.6327    1.9584    0.0000 C   0  0  0  0  0  0  0  0  0  0  0  0
    9.3400    2.9125    0.0000 C   0  0  0  0  0  0  0  0  0  0  0  0
    8.4863    4.3687    0.0000 C   0  0  0  0  0  0  0  0  0  0  0  0
    6.7790    1.4562    0.0000 N   0  0  0  0  0  0  0  0  0  0  0  0
    8.4863    1.4562    0.0000 C   0  0  0  0  0  0  0  0  0  0  0  0
   10.1434    3.4146    0.0000 C   0  0  0  0  0  0  0  0  0  0  0  0
    9.3400    4.8709    0.0000 N   0  0  0  0  0  0  0  0  0  0  0  0
    6.7790    0.5021    0.0000 C   0  0  0  0  0  0  0  0  0  0  0  0
    8.4863    0.5021    0.0000 C   0  0  0  0  0  0  0  0  0  0  0  0
   10.1936    4.3687    0.0000 C   0  0  0  0  0  0  0  0  0  0  0  0
    9.3400    5.8249    0.0000 C   0  0  0  0  0  0  0  0  0  0  0  0
    7.6327    0.0000    0.0000 N   0  0  0  0  0  0  0  0  0  0  0  0
    5.5236    0.0000    0.0000 N   0  0  0  0  0  0  0  0  0  0  0  0
    9.3400    0.0000    0.0000 C   0  0  0  0  0  0  0  0  0  0  0  0
   10.1936    6.2769    0.0000 C   0  0  0  0  0  0  0  0  0  0  0  0
    4.6198    0.5021    0.0000 C   0  0  0  0  0  0  0  0  0  0  0  0
    4.6198    1.4562    0.0000 N   0  0  0  0  0  0  0  0  0  0  0  0
    3.3644    0.0000    0.0000 N   0  0  0  0  0  0  0  0  0  0  0  0
    2.5107    0.5021    0.0000 C   0  0  0  0  0  0  0  0  0  0  0  0
    2.5107    1.4562    0.0000 C   0  0  0  0  0  0  0  0  0  0  0  0
    1.6571    0.0000    0.0000 C   0  0  0  0  0  0  0  0  0  0  0  0
    1.6571    1.9584    0.0000 C   0  0  0  0  0  0  0  0  0  0  0  0
    0.8537    0.5021    0.0000 C   0  0  0  0  0  0  0  0  0  0  0  0
    0.8537    1.4562    0.0000 C   0  0  0  0  0  0  0  0  0  0  0  0
    0.0000    0.0000    0.0000 Cl  0  0  0  0  0  0  0  0  0  0  0  0
    0.0000    1.9584    0.0000 Cl  0  0  0  0  0  0  0  0  0  0  0  0
  1  2  1  0  0  0  0 
  1  3  1  0  0  0  0 
  4  2  1  0  0  0  0 
  2  5  1  0  0  0  0 
  6  3  2  0  0  0  0 
  3  7  1  0  0  0  0 
  8  4  1  0  0  0  0 
  5  9  1  0  0  0  0 
 10  6  1  0  0  0  0 
  7 11  2  0  0  0  0 
 12  8  1  0  0  0  0 
  9 12  1  0  0  0  0 
  9 13  1  0  0  0  0 
 14 10  2  0  0  0  0 
 10 15  1  0  0  0  0 
 16 11  1  0  0  0  0 
 11 14  1  0  0  0  0 
 13 17  1  0  0  0  0 
 15 18  1  0  0  0  0 
 19 18  2  0  0  0  0 
 18 20  1  0  0  0  0 
 20 21  1  0  0  0  0 
 22 21  2  0  0  0  0 
 21 23  1  0  0  0  0 
 24 22  1  0  0  0  0 
 23 25  2  0  0  0  0 
 26 24  2  0  0  0  0 
 27 25  1  0  0  0  0 
 25 26  1  0  0  0  0 
 28 26  1  0  0  0  0 
M  END
> <Name>
Guanidine, 1-(3,4-dichlorophenyl)-3-(4-((1-ethyl-3-piperidyl)amino)-6-methyl-2-pyrimidinyl)-

> <Source>
NIST2DMolFile

> <Tox>
2.608

> <CAS>
21062-28-2

$$$$

  CDK

 22 22  0  0  0  0  0  0  0  0999 V2000
   -2.2771   -3.0912   -6.6883 Br  0  0  0  0  0  0  0  0  0  0  0  0
   -3.5052   -2.5327   -8.1013 C   0  0  0  0  0  0  0  0  0  0  0  0
   -4.8920   -2.2884   -7.5172 C   0  0  0  0  0  0  0  0  0  0  0  0
   -5.5496   -3.5285   -7.2937 O   0  0  0  0  0  0  0  0  0  0  0  0
   -5.7455   -1.4644   -8.4545 C   0  0  0  0  0  0  0  0  0  0  0  0
   -6.5858   -3.4035   -6.3296 C   0  0  0  0  0  0  0  0  0  0  0  0
   -5.9770   -1.9066   -9.7571 C   0  0  0  0  0  0  0  0  0  0  0  0
   -6.3010   -0.2620   -8.0172 C   0  0  0  0  0  0  0  0  0  0  0  0
   -7.2463   -4.7614   -6.1381 C   0  0  0  0  0  0  0  0  0  0  0  0
   -6.7641   -1.1466  -10.6221 C   0  0  0  0  0  0  0  0  0  0  0  0
   -7.0881    0.4981   -8.8822 C   0  0  0  0  0  0  0  0  0  0  0  0
   -8.3854   -4.6962   -5.1216 C   0  0  0  0  0  0  0  0  0  0  0  0
   -7.3196    0.0558  -10.1847 C   0  0  0  0  0  0  0  0  0  0  0  0
   -9.0149   -6.0743   -4.9059 C   0  0  0  0  0  0  0  0  0  0  0  0
   -8.1602    0.8688  -11.1102 C   0  0  0  0  0  0  0  0  0  0  0  0
  -10.1796   -6.0629   -3.9116 C   0  0  0  0  0  0  0  0  0  0  0  0
   -7.5499    2.2879  -11.3294 C   0  0  0  0  0  0  0  0  0  0  0  0
   -9.6021    1.0592  -10.5454 C   0  0  0  0  0  0  0  0  0  0  0  0
   -8.3505    0.2715  -12.5440 C   0  0  0  0  0  0  0  0  0  0  0  0
  -10.8566   -7.4258   -3.7512 C   0  0  0  0  0  0  0  0  0  0  0  0
  -12.0548   -7.3403   -2.8045 C   0  0  0  0  0  0  0  0  0  0  0  0
  -12.7555   -8.6828   -2.6702 C   0  0  0  0  0  0  0  0  0  0  0  0
  1  2  1  0  0  0  0 
  3  2  1  0  0  0  0 
  4  3  1  0  0  0  0 
  3  5  1  0  0  0  0 
  4  6  1  0  0  0  0 
  5  7  2  0  0  0  0 
  5  8  1  0  0  0  0 
  9  6  1  0  0  0  0 
 10  7  1  0  0  0  0 
 11  8  2  0  0  0  0 
 12  9  1  0  0  0  0 
 13 10  2  0  0  0  0 
 13 11  1  0  0  0  0 
 14 12  1  0  0  0  0 
 15 13  1  0  0  0  0 
 14 16  1  0  0  0  0 
 15 17  1  0  0  0  0 
 15 18  1  0  0  0  0 
 15 19  1  0  0  0  0 
 16 20  1  0  0  0  0 
 20 21  1  0  0  0  0 
 21 22  1  0  0  0  0 
M  END
> <Name>
Ether, alpha-(bromomethyl)-p-tert-butylbenzyl octyl

> <Source>
Chemidplus3DMolFile

> <Tox>
3.170

> <CAS>
21270-06-4

$$$$

  CDK

 20 21  0  0  0  0  0  0  0  0999 V2000
    5.7202    1.3432   -9.4713 Br  0  0  0  0  0  0  0  0  0  0  0  0
    5.4221    0.9756   -7.5758 C   0  0  0  0  0  0  0  0  0  0  0  0
    3.9701    0.5711   -7.3474 C   0  0  0  0  0  0  0  0  0  0  0  0
    3.1023    1.5989   -7.8065 O   0  0  0  0  0  0  0  0  0  0  0  0
    3.6892    0.3373   -5.8804 C   0  0  0  0  0  0  0  0  0  0  0  0
    1.7370    1.2397   -7.6459 C   0  0  0  0  0  0  0  0  0  0  0  0
    3.9330    1.3552   -4.9740 C   0  0  0  0  0  0  0  0  0  0  0  0
    3.1943   -0.8901   -5.4734 C   0  0  0  0  0  0  0  0  0  0  0  0
    0.8653    2.3790   -8.1548 C   0  0  0  0  0  0  0  0  0  0  0  0
    3.6742    1.1393   -3.6205 C   0  0  0  0  0  0  0  0  0  0  0  0
    2.9353   -1.1061   -4.1199 C   0  0  0  0  0  0  0  0  0  0  0  0
   -0.6209    2.0529   -8.0261 C   0  0  0  0  0  0  0  0  0  0  0  0
    3.1753   -0.0914   -3.1935 C   0  0  0  0  0  0  0  0  0  0  0  0
   -1.4883    3.1838   -8.5779 C   0  0  0  0  0  0  0  0  0  0  0  0
    2.8940   -0.3251   -1.7260 C   0  0  0  0  0  0  0  0  0  0  0  0
   -2.9682    2.8484   -8.4825 C   0  0  0  0  0  0  0  0  0  0  0  0
    4.1538   -0.1796   -0.8538 C   0  0  0  0  0  0  0  0  0  0  0  0
    1.8502    0.6320   -1.1139 C   0  0  0  0  0  0  0  0  0  0  0  0
    3.6554    0.4348    0.4453 C   0  0  0  0  0  0  0  0  0  0  0  0
    2.5845    1.4039   -0.0236 C   0  0  0  0  0  0  0  0  0  0  0  0
  1  2  1  0  0  0  0 
  3  2  1  0  0  0  0 
  4  3  1  0  0  0  0 
  5  3  1  0  0  0  0 
  4  6  1  0  0  0  0 
  5  7  2  0  0  0  0 
  5  8  1  0  0  0  0 
  6  9  1  0  0  0  0 
 10  7  1  0  0  0  0 
 11  8  2  0  0  0  0 
  9 12  1  0  0  0  0 
 13 10  2  0  0  0  0 
 13 11  1  0  0  0  0 
 12 14  1  0  0  0  0 
 15 13  1  0  0  0  0 
 14 16  1  0  0  0  0 
 15 17  1  0  0  0  0 
 15 18  1  0  0  0  0 
 17 19  1  0  0  0  0 
 18 20  1  0  0  0  0 
 19 20  1  0  0  0  0 
M  END
> <Name>
Ether, alpha-(bromomethyl)-p-cyclopentylbenzyl pentyl

> <Source>
Chemidplus3DMolFile

> <Tox>
3.133

> <CAS>
21270-10-0

$$$$

  CDK

 23 24  0  0  0  0  0  0  0  0999 V2000
    4.6374    2.4128   -9.4509 Br  0  0  0  0  0  0  0  0  0  0  0  0
    3.7564    2.0309   -7.7495 C   0  0  0  0  0  0  0  0  0  0  0  0
    3.9749    0.5712   -7.3678 C   0  0  0  0  0  0  0  0  0  0  0  0
    3.1063   -0.2628   -8.1228 O   0  0  0  0  0  0  0  0  0  0  0  0
    3.6938    0.3391   -5.9005 C   0  0  0  0  0  0  0  0  0  0  0  0
    3.5882   -1.5981   -8.1847 C   0  0  0  0  0  0  0  0  0  0  0  0
    2.4458    0.6651   -5.3697 C   0  0  0  0  0  0  0  0  0  0  0  0
    4.6819   -0.2020   -5.0779 C   0  0  0  0  0  0  0  0  0  0  0  0
    2.6225   -2.4758   -8.9977 C   0  0  0  0  0  0  0  0  0  0  0  0
    2.1858    0.4501   -4.0163 C   0  0  0  0  0  0  0  0  0  0  0  0
    4.4219   -0.4169   -3.7246 C   0  0  0  0  0  0  0  0  0  0  0  0
    3.2685   -3.8559   -9.2420 C   0  0  0  0  0  0  0  0  0  0  0  0
    1.2135   -2.5402   -8.3666 C   0  0  0  0  0  0  0  0  0  0  0  0
    3.1739   -0.0909   -3.1937 C   0  0  0  0  0  0  0  0  0  0  0  0
    2.4512   -4.7599  -10.1706 C   0  0  0  0  0  0  0  0  0  0  0  0
    1.1442   -3.2205   -7.0063 C   0  0  0  0  0  0  0  0  0  0  0  0
    2.8916   -0.3242   -1.7263 C   0  0  0  0  0  0  0  0  0  0  0  0
    3.0923   -6.1325  -10.3927 C   0  0  0  0  0  0  0  0  0  0  0  0
    1.7220   -1.2903   -1.4452 C   0  0  0  0  0  0  0  0  0  0  0  0
    2.5462    0.9760   -0.9785 C   0  0  0  0  0  0  0  0  0  0  0  0
    2.2730   -7.0444  -11.2929 C   0  0  0  0  0  0  0  0  0  0  0  0
    0.6814   -0.4724   -0.6887 C   0  0  0  0  0  0  0  0  0  0  0  0
    1.5070    0.5640    0.0530 C   0  0  0  0  0  0  0  0  0  0  0  0
  1  2  1  0  0  0  0 
  3  2  1  0  0  0  0 
  4  3  1  0  0  0  0 
  5  3  1  0  0  0  0 
  4  6  1  0  0  0  0 
  5  7  2  0  0  0  0 
  5  8  1  0  0  0  0 
  9  6  1  0  0  0  0 
 10  7  1  0  0  0  0 
 11  8  2  0  0  0  0 
  9 12  1  0  0  0  0 
  9 13  1  0  0  0  0 
 14 10  2  0  0  0  0 
 14 11  1  0  0  0  0 
 12 15  1  0  0  0  0 
 13 16  1  0  0  0  0 
 17 14  1  0  0  0  0 
 15 18  1  0  0  0  0 
 17 19  1  0  0  0  0 
 17 20  1  0  0  0  0 
 18 21  1  0  0  0  0 
 19 22  1  0  0  0  0 
 20 23  1  0  0  0  0 
 22 23  1  0  0  0  0 
M  END
> <Name>
Ether, alpha-(bromomethyl)-p-cyclopentylbenzyl 2-ethylhexyl

> <Source>
Chemidplus3DMolFile

> <Tox>
3.183

> <CAS>
21270-12-2

$$$$

  CDK

 24 25  0  0  0  0  0  0  0  0999 V2000
    8.2752   -1.5111   -8.7944 Br  0  0  0  0  0  0  0  0  0  0  0  0
    6.5206   -1.4281   -7.9391 C   0  0  0  0  0  0  0  0  0  0  0  0
    6.4780   -2.3790   -6.7483 C   0  0  0  0  0  0  0  0  0  0  0  0
    6.3086   -3.7157   -7.2008 O   0  0  0  0  0  0  0  0  0  0  0  0
    5.3315   -2.0465   -5.8206 C   0  0  0  0  0  0  0  0  0  0  0  0
    6.7489   -4.6551   -6.2298 C   0  0  0  0  0  0  0  0  0  0  0  0
    4.0246   -2.0238   -6.3077 C   0  0  0  0  0  0  0  0  0  0  0  0
    5.5803   -1.7636   -4.4775 C   0  0  0  0  0  0  0  0  0  0  0  0
    6.5426   -6.0892   -6.7444 C   0  0  0  0  0  0  0  0  0  0  0  0
    2.9666   -1.7181   -5.4518 C   0  0  0  0  0  0  0  0  0  0  0  0
    4.5222   -1.4579   -3.6217 C   0  0  0  0  0  0  0  0  0  0  0  0
    7.2265   -7.0815   -5.7804 C   0  0  0  0  0  0  0  0  0  0  0  0
    5.0565   -6.4046   -7.0269 C   0  0  0  0  0  0  0  0  0  0  0  0
    3.2153   -1.4351   -4.1088 C   0  0  0  0  0  0  0  0  0  0  0  0
    7.2088   -8.5307   -6.2777 C   0  0  0  0  0  0  0  0  0  0  0  0
    4.1512   -6.4055   -5.8027 C   0  0  0  0  0  0  0  0  0  0  0  0
    2.0636   -1.1028   -3.1776 C   0  0  0  0  0  0  0  0  0  0  0  0
    7.8746   -9.5092   -5.3063 C   0  0  0  0  0  0  0  0  0  0  0  0
    1.3320    0.1812   -3.6063 C   0  0  0  0  0  0  0  0  0  0  0  0
    1.0799   -2.2782   -3.0422 C   0  0  0  0  0  0  0  0  0  0  0  0
    7.8375  -10.9533   -5.7820 C   0  0  0  0  0  0  0  0  0  0  0  0
    0.1810    0.5114   -2.6573 C   0  0  0  0  0  0  0  0  0  0  0  0
   -0.0699   -1.9378   -2.0955 C   0  0  0  0  0  0  0  0  0  0  0  0
   -0.7877   -0.6593   -2.5182 C   0  0  0  0  0  0  0  0  0  0  0  0
  1  2  1  0  0  0  0 
  3  2  1  0  0  0  0 
  4  3  1  0  0  0  0 
  5  3  1  0  0  0  0 
  4  6  1  0  0  0  0 
  5  7  2  0  0  0  0 
  5  8  1  0  0  0  0 
  9  6  1  0  0  0  0 
 10  7  1  0  0  0  0 
 11  8  2  0  0  0  0 
  9 12  1  0  0  0  0 
  9 13  1  0  0  0  0 
 14 10  2  0  0  0  0 
 14 11  1  0  0  0  0 
 12 15  1  0  0  0  0 
 13 16  1  0  0  0  0 
 17 14  1  0  0  0  0 
 15 18  1  0  0  0  0 
 17 19  1  0  0  0  0 
 17 20  1  0  0  0  0 
 18 21  1  0  0  0  0 
 19 22  1  0  0  0  0 
 20 23  1  0  0  0  0 
 22 24  1  0  0  0  0 
 23 24  1  0  0  0  0 
M  END
> <Name>
Ether, alpha-(bromomethyl)-p-cyclohexylbenzyl 2-ethylhexyl

> <Source>
Chemidplus3DMolFile

> <Tox>
3.199

> <CAS>
21270-16-6

$$$$

  CDK

 16 18  0  0  0  0  0  0  0  0999 V2000
   -2.3204    0.5978    0.0000 O   0  0  0  0  0  0  0  0  0  0  0  0
   -1.5089    0.8229    0.0000 C   0  0  0  0  0  0  0  0  0  0  0  0
   -0.6069    1.2791    0.0000 O   0  0  0  0  0  0  0  0  0  0  0  0
   -1.4919    0.1461    0.0000 C   0  0  0  0  0  0  0  0  0  0  0  0
   -0.0382    0.8588    0.0000 C   0  0  0  0  0  0  0  0  0  0  0  0
   -0.7975   -0.3599    0.0000 C   0  0  0  0  0  0  0  0  0  0  0  0
   -1.6360    1.1532    0.0000 C   0  0  0  0  0  0  0  0  0  0  0  0
   -1.6831   -0.7363    0.0000 C   0  0  0  0  0  0  0  0  0  0  0  0
   -0.0382    0.0157    0.0000 C   0  0  0  0  0  0  0  0  0  0  0  0
   -0.7511    1.5911    0.0000 C   0  0  0  0  0  0  0  0  0  0  0  0
    0.7092    1.2182    0.0000 C   0  0  0  0  0  0  0  0  0  0  0  0
    0.7007   -0.4541    0.0000 C   0  0  0  0  0  0  0  0  0  0  0  0
    1.4211    0.7896    0.0000 C   0  0  0  0  0  0  0  0  0  0  0  0
    1.4044   -0.0297    0.0000 C   0  0  0  0  0  0  0  0  0  0  0  0
    1.2527   -1.1422    0.0000 C   0  0  0  0  0  0  0  0  0  0  0  0
    0.5893   -1.3567    0.0000 C   0  0  0  0  0  0  0  0  0  0  0  0
  1  2  2  0  0  0  0 
  2  3  1  0  0  0  0 
  2  4  1  0  0  0  0 
  3  5  1  0  0  0  0 
  6  4  1  0  0  0  0 
  7  4  1  0  0  0  0 
  4  8  1  0  0  0  0 
  5  9  1  0  0  0  0 
  5 10  1  0  0  0  0 
  5 11  1  0  0  0  0 
  9  6  1  0  0  0  0 
 10  7  1  0  0  0  0 
  9 12  1  0  0  0  0 
 13 11  1  0  0  0  0 
 12 14  1  0  0  0  0 
 12 15  1  0  0  0  0 
 12 16  1  0  0  0  0 
 14 13  1  0  0  0  0 
M  END
> <Name>
3,8a-Ethano-8aH-1-benzopyran-2(3H)-one, hexahydro-3,5,5-trimethyl-

> <Source>
Smiles

> <Tox>
2.143

> <CAS>
21280-29-5

$$$$

  CDK

 14 13  0  0  0  0  0  0  0  0999 V2000
   -0.7944    5.2555    3.0622 C   0  0  0  0  0  0  0  0  0  0  0  0
    0.2060    6.0164    2.3351 C   0  0  0  0  0  0  0  0  0  0  0  0
   -0.0568    6.6383    1.0391 C   0  0  0  0  0  0  0  0  0  0  0  0
    1.3050    6.1587    2.8553 O   0  0  0  0  0  0  0  0  0  0  0  0
   -0.4642    5.7051    0.0007 C   0  0  0  0  0  0  0  0  0  0  0  0
   -1.2044    6.0887   -0.8972 O   0  0  0  0  0  0  0  0  0  0  0  0
   -0.0552    4.5325    0.0386 O   0  0  0  0  0  0  0  0  0  0  0  0
   -0.7066    3.3900   -0.2220 C   0  0  0  0  0  0  0  0  0  0  0  0
    0.3089    2.2364   -0.0941 C   0  0  0  0  0  0  0  0  0  0  0  0
   -0.2898    1.0320   -0.1100 O   0  0  0  0  0  0  0  0  0  0  0  0
    0.2388   -0.1011   -0.0335 C   0  0  0  0  0  0  0  0  0  0  0  0
    1.4595   -0.2192    0.0307 O   0  0  0  0  0  0  0  0  0  0  0  0
   -0.5638   -1.1997   -0.0204 C   0  0  0  0  0  0  0  0  0  0  0  0
   -0.1303   -2.4684    0.0015 C   0  0  0  0  0  0  0  0  0  0  0  0
  1  2  1  0  0  0  0 
  2  3  1  0  0  0  0 
  2  4  2  0  0  0  0 
  3  5  1  0  0  0  0 
  5  6  2  0  0  0  0 
  5  7  1  0  0  0  0 
  7  8  1  0  0  0  0 
  8  9  1  0  0  0  0 
  9 10  1  0  0  0  0 
 10 11  1  0  0  0  0 
 11 12  2  0  0  0  0 
 11 13  1  0  0  0  0 
 13 14  2  0  0  0  0 
M  END
> <Name>
Butanoic acid, 3-oxo-, 2-((1-oxo-2-propenyl)oxy)ethyl ester (9CI)

> <Source>
Other

> <Tox>
2.138

> <CAS>
21282-96-2

$$$$

  CDK

 22 22  0  0  0  0  0  0  0  0999 V2000
   -5.6641   -0.1486   -5.2487 Cl  0  0  0  0  0  0  0  0  0  0  0  0
   -3.9623   -0.1985   -5.5386 C   0  0  0  0  0  0  0  0  0  0  0  0
   -3.4393   -0.3543   -6.8224 C   0  0  0  0  0  0  0  0  0  0  0  0
   -3.1038   -0.0779   -4.4457 C   0  0  0  0  0  0  0  0  0  0  0  0
   -4.4677   -0.5113   -8.2324 S   0  0  0  0  0  0  0  0  0  0  0  0
   -2.0580   -0.3899   -7.0133 C   0  0  0  0  0  0  0  0  0  0  0  0
   -1.7272   -0.1140   -4.6428 C   0  0  0  0  0  0  0  0  0  0  0  0
   -5.7412    0.1305   -7.9337 O   0  0  0  0  0  0  0  0  0  0  0  0
   -3.7115   -0.0588   -9.3926 O   0  0  0  0  0  0  0  0  0  0  0  0
   -4.7144   -2.2180   -8.3535 N   0  0  0  0  0  0  0  0  0  0  0  0
   -1.1997   -0.2693   -5.9206 C   0  0  0  0  0  0  0  0  0  0  0  0
   -0.8843    0.0037   -3.5707 O   0  0  0  0  0  0  0  0  0  0  0  0
   -3.5155   -3.0760   -8.5321 C   0  0  0  0  0  0  0  0  0  0  0  0
   -5.7085   -2.8358   -7.4393 C   0  0  0  0  0  0  0  0  0  0  0  0
    0.5924   -0.6504   -3.4291 P   0  0  0  0  0  0  0  0  0  0  0  0
   -3.2439   -3.2743  -10.0096 C   0  0  0  0  0  0  0  0  0  0  0  0
   -6.3492   -4.0321   -8.1135 C   0  0  0  0  0  0  0  0  0  0  0  0
    0.7412   -2.5713   -3.7320 S   0  0  0  0  0  0  0  0  0  0  0  0
    1.4881    0.3258   -4.3737 O   0  0  0  0  0  0  0  0  0  0  0  0
    1.0242   -0.1284   -1.9482 O   0  0  0  0  0  0  0  0  0  0  0  0
    2.8769    0.0834   -4.5203 C   0  0  0  0  0  0  0  0  0  0  0  0
    0.2440   -0.4847   -0.8192 C   0  0  0  0  0  0  0  0  0  0  0  0
  1  2  1  0  0  0  0 
  3  2  2  0  0  0  0 
  2  4  1  0  0  0  0 
  5  3  1  0  0  0  0 
  3  6  1  0  0  0  0 
  4  7  2  0  0  0  0 
  5  8  2  0  0  0  0 
  5  9  2  0  0  0  0 
  5 10  1  0  0  0  0 
  6 11  2  0  0  0  0 
 12  7  1  0  0  0  0 
 11  7  1  0  0  0  0 
 10 13  1  0  0  0  0 
 10 14  1  0  0  0  0 
 15 12  1  0  0  0  0 
 13 16  1  0  0  0  0 
 14 17  1  0  0  0  0 
 18 15  2  0  0  0  0 
 15 19  1  0  0  0  0 
 15 20  1  0  0  0  0 
 19 21  1  0  0  0  0 
 20 22  1  0  0  0  0 
M  END
> <Name>
Phosphorothioic acid, O,O-dimethyl ester, O-ester with 2-chloro-N,N-diethyl-4-hydroxybenzenesulfonamide

> <Source>
Chemidplus3DMolFile

> <Tox>
3.890

> <CAS>
21410-51-5

$$$$

  CDK

 16 17  0  0  0  0  0  0  0  0999 V2000
    2.4641    0.3903    0.0000 S   0  0  0  0  0  0  0  0  0  0  0  0
    1.1326    0.8229    0.0000 C   0  0  0  0  0  0  0  0  0  0  0  0
    3.2870    1.5229    0.0000 C   0  0  0  0  0  0  0  0  0  0  0  0
    1.1326    2.2229    0.0000 N   0  0  0  0  0  0  0  0  0  0  0  0
    0.0000    0.0000    0.0000 N   0  0  0  0  0  0  0  0  0  0  0  0
    2.4641    2.6555    0.0000 C   0  0  0  0  0  0  0  0  0  0  0  0
    4.6870    1.5229    0.0000 C   0  0  0  0  0  0  0  0  0  0  0  0
    2.8967    3.9870    0.0000 C   0  0  0  0  0  0  0  0  0  0  0  0
    5.3870    2.7353    0.0000 N   0  0  0  0  0  0  0  0  0  0  0  0
    5.3870    0.3105    0.0000 O   0  0  0  0  0  0  0  0  0  0  0  0
    6.7870    2.7353    0.0000 C   0  0  0  0  0  0  0  0  0  0  0  0
    7.4870    3.9478    0.0000 C   0  0  0  0  0  0  0  0  0  0  0  0
    7.4870    1.5229    0.0000 C   0  0  0  0  0  0  0  0  0  0  0  0
    8.8870    3.9478    0.0000 C   0  0  0  0  0  0  0  0  0  0  0  0
    8.8870    1.5229    0.0000 C   0  0  0  0  0  0  0  0  0  0  0  0
    9.5870    2.7353    0.0000 C   0  0  0  0  0  0  0  0  0  0  0  0
  1  2  1  0  0  0  0 
  1  3  1  0  0  0  0 
  2  4  2  0  0  0  0 
  2  5  1  0  0  0  0 
  6  3  2  0  0  0  0 
  3  7  1  0  0  0  0 
  4  6  1  0  0  0  0 
  6  8  1  0  0  0  0 
  7  9  1  0  0  0  0 
  7 10  2  0  0  0  0 
  9 11  1  0  0  0  0 
 11 12  1  0  0  0  0 
 11 13  2  0  0  0  0 
 12 14  2  0  0  0  0 
 15 13  1  0  0  0  0 
 14 16  1  0  0  0  0 
 16 15  2  0  0  0  0 
M  END
> <Name>
Thiazole, 2-amino-4-methyl-5-phenylcarbamoyl-

> <Source>
Name2DMolFile

> <Tox>
2.219

> <CAS>
21452-14-2

$$$$

  CDK

 16 17  0  0  0  0  0  0  0  0999 V2000
    5.9267    2.2400    0.0000 C   0  0  0  0  0  0  0  0  0  0  0  0
    5.9267    0.8400    0.0000 C   0  0  0  0  0  0  0  0  0  0  0  0
    7.2800    2.6600    0.0000 S   0  0  0  0  0  0  0  0  0  0  0  0
    4.8067    3.0800    0.0000 C   0  0  0  0  0  0  0  0  0  0  0  0
    7.2800    0.4200    0.0000 N   0  0  0  0  0  0  0  0  0  0  0  0
    4.8067    0.0000    0.0000 C   0  0  0  0  0  0  0  0  0  0  0  0
    8.0733    1.5400    0.0000 C   0  0  0  0  0  0  0  0  0  0  0  0
    3.5467    2.5200    0.0000 N   0  0  0  0  0  0  0  0  0  0  0  0
    4.9467    4.4800    0.0000 O   0  0  0  0  0  0  0  0  0  0  0  0
    9.4733    1.5400    0.0000 C   0  0  0  0  0  0  0  0  0  0  0  0
    2.3800    3.3133    0.0000 C   0  0  0  0  0  0  0  0  0  0  0  0
    2.5667    4.7133    0.0000 C   0  0  0  0  0  0  0  0  0  0  0  0
    1.1200    2.7533    0.0000 C   0  0  0  0  0  0  0  0  0  0  0  0
    1.4000    5.5533    0.0000 C   0  0  0  0  0  0  0  0  0  0  0  0
    0.0000    3.5933    0.0000 C   0  0  0  0  0  0  0  0  0  0  0  0
    0.1400    4.9933    0.0000 C   0  0  0  0  0  0  0  0  0  0  0  0
  1  2  2  0  0  0  0 
  1  3  1  0  0  0  0 
  1  4  1  0  0  0  0 
  2  5  1  0  0  0  0 
  2  6  1  0  0  0  0 
  7  3  1  0  0  0  0 
  4  8  1  0  0  0  0 
  4  9  2  0  0  0  0 
  5  7  2  0  0  0  0 
  7 10  1  0  0  0  0 
  8 11  1  0  0  0  0 
 11 12  2  0  0  0  0 
 11 13  1  0  0  0  0 
 12 14  1  0  0  0  0 
 15 13  2  0  0  0  0 
 14 16  2  0  0  0  0 
 16 15  1  0  0  0  0 
M  END
> <Name>
5-Thiazolecarboxamide, 2,4-dimethyl-N-phenyl-

> <Source>
IndexNet2DMolFile

> <Tox>
1.772

> <CAS>
21452-18-6

$$$$

  CDK

 15 15  0  0  0  0  0  0  0  0999 V2000
    2.3220   -0.7219    0.0000 O   0  0  0  0  0  0  0  0  0  0  0  0
    1.6076   -1.1344    0.0000 C   0  0  0  0  0  0  0  0  0  0  0  0
    1.6076   -1.9594    0.0000 O   0  0  0  0  0  0  0  0  0  0  0  0
    0.8931   -0.7219    0.0000 C   0  0  0  0  0  0  0  0  0  0  0  0
    2.3220   -2.3719    0.0000 C   0  0  0  0  0  0  0  0  0  0  0  0
    0.1786   -0.3094    0.0000 C   0  0  0  0  0  0  0  0  0  0  0  0
   -0.5359    0.1031    0.0000 N   0  0  0  0  0  0  0  0  0  0  0  0
   -0.5359    0.9281    0.0000 C   0  0  0  0  0  0  0  0  0  0  0  0
   -1.2503   -0.3094    0.0000 C   0  0  0  0  0  0  0  0  0  0  0  0
    0.1786    1.3406    0.0000 C   0  0  0  0  0  0  0  0  0  0  0  0
   -1.2503    1.3406    0.0000 C   0  0  0  0  0  0  0  0  0  0  0  0
   -1.9648   -0.7219    0.0000 C   0  0  0  0  0  0  0  0  0  0  0  0
    0.1786    2.1656    0.0000 C   0  0  0  0  0  0  0  0  0  0  0  0
   -1.2503    2.1656    0.0000 C   0  0  0  0  0  0  0  0  0  0  0  0
   -0.5359    2.5781    0.0000 C   0  0  0  0  0  0  0  0  0  0  0  0
  1  2  2  0  0  0  0 
  2  3  1  0  0  0  0 
  2  4  1  0  0  0  0 
  3  5  1  0  0  0  0 
  4  6  1  0  0  0  0 
  6  7  1  0  0  0  0 
  7  8  1  0  0  0  0 
  7  9  1  0  0  0  0 
  8 10  1  0  0  0  0 
  8 11  2  0  0  0  0 
  9 12  1  0  0  0  0 
 10 13  2  0  0  0  0 
 14 11  1  0  0  0  0 
 13 15  1  0  0  0  0 
 15 14  2  0  0  0  0 
M  END
> <Name>
beta-Alanine, N-ethyl-N-phenyl-, methyl ester

> <Source>
Smiles

> <Tox>
1.927

> <CAS>
21608-06-0

$$$$

  CDK

 20 21  0  0  0  0  0  0  0  0999 V2000
    2.7920   -1.1697   -0.1628 C   0  0  0  0  0  0  0  0  0  0  0  0
    3.4105   -1.8880    0.8603 C   0  0  0  0  0  0  0  0  0  0  0  0
    2.2192   -1.8604   -1.2285 C   0  0  0  0  0  0  0  0  0  0  0  0
    2.8226    0.6165   -0.0196 P   0  0  0  0  0  0  0  0  0  0  0  0
    3.4528   -3.2771    0.8240 C   0  0  0  0  0  0  0  0  0  0  0  0
    2.2639   -3.2511   -1.2699 C   0  0  0  0  0  0  0  0  0  0  0  0
    1.3617    1.0392    0.8193 O   0  0  0  0  0  0  0  0  0  0  0  0
    2.3926    1.0754   -1.6063 O   0  0  0  0  0  0  0  0  0  0  0  0
    4.3363    1.4524    0.8396 S   0  0  0  0  0  0  0  0  0  0  0  0
    2.8785   -3.9608   -0.2436 C   0  0  0  0  0  0  0  0  0  0  0  0
    0.0759    0.7445    0.5093 C   0  0  0  0  0  0  0  0  0  0  0  0
    2.4176    2.4206   -1.9623 C   0  0  0  0  0  0  0  0  0  0  0  0
   -0.8136    1.8157    0.2754 C   0  0  0  0  0  0  0  0  0  0  0  0
   -0.4052   -0.5771    0.5473 C   0  0  0  0  0  0  0  0  0  0  0  0
   -2.1715    1.5694    0.0698 C   0  0  0  0  0  0  0  0  0  0  0  0
   -0.2746    3.4093    0.2625 Cl  0  0  0  0  0  0  0  0  0  0  0  0
   -1.7604   -0.8089    0.3385 C   0  0  0  0  0  0  0  0  0  0  0  0
   -2.6061    0.2629    0.1032 C   0  0  0  0  0  0  0  0  0  0  0  0
   -2.4035   -2.3528    0.3682 Cl  0  0  0  0  0  0  0  0  0  0  0  0
   -4.4030   -0.1370   -0.1654 Br  0  0  0  0  0  0  0  0  0  0  0  0
  1  2  1  0  0  0  0 
  1  3  2  0  0  0  0 
  1  4  1  0  0  0  0 
  2  5  2  0  0  0  0 
  6  3  1  0  0  0  0 
  4  7  1  0  0  0  0 
  4  8  1  0  0  0  0 
  4  9  2  0  0  0  0 
  5 10  1  0  0  0  0 
 10  6  2  0  0  0  0 
  7 11  1  0  0  0  0 
  8 12  1  0  0  0  0 
 11 13  1  0  0  0  0 
 11 14  2  0  0  0  0 
 13 15  2  0  0  0  0 
 13 16  1  0  0  0  0 
 17 14  1  0  0  0  0 
 15 18  1  0  0  0  0 
 18 17  2  0  0  0  0 
 17 19  1  0  0  0  0 
 18 20  1  0  0  0  0 
M  END
> <Name>
Phosphonothioic acid, phenyl-, O-(4-bromo-2,5-dichlorophenyl) O-methyl ester

> <Source>
DougDB3DMolFile

> <Tox>
4.336

> <CAS>
21609-90-5

$$$$

  CDK

  9  8  0  0  0  0  0  0  0  0999 V2000
    3.6380    0.9795    0.0000 P   0  0  0  0  0  0  0  0  0  0  0  0
    3.6380    2.3787    0.0000 O   0  0  0  0  0  0  0  0  0  0  0  0
    2.4253    0.2798    0.0000 C   0  0  0  0  0  0  0  0  0  0  0  0
    4.9906    0.6063    0.0000 O   0  0  0  0  0  0  0  0  0  0  0  0
    4.6174    0.0000    0.0000 O   0  0  0  0  0  0  0  0  0  0  0  0
    1.2127    0.9795    0.0000 C   0  0  0  0  0  0  0  0  0  0  0  0
    5.9700    1.5858    0.0000 C   0  0  0  0  0  0  0  0  0  0  0  0
    0.0000    0.2798    0.0000 C   0  0  0  0  0  0  0  0  0  0  0  0
    7.3226    1.2593    0.0000 C   0  0  0  0  0  0  0  0  0  0  0  0
  1  2  2  0  0  0  0 
  1  3  1  0  0  0  0 
  1  4  1  0  0  0  0 
  1  5  1  0  0  0  0 
  3  6  1  0  0  0  0 
  4  7  1  0  0  0  0 
  6  8  1  0  0  0  0 
  7  9  1  0  0  0  0 
M  END
> <Name>
Phosphonic acid, propyl-, ethyl ester (7CI)

> <Source>
IndexNet2DMolFile

> <Tox>
1.820

> <CAS>
21921-96-0

$$$$

  CDK

 10  9  0  0  0  0  0  0  0  0999 V2000
   -2.2991    0.8563    1.7795 S   0  0  0  0  0  0  0  0  0  0  0  0
   -2.2675   -1.1820    1.2437 P   0  0  0  0  0  0  0  0  0  0  0  0
   -1.3441    0.9595    3.3061 C   0  0  0  0  0  0  0  0  0  0  0  0
   -3.3920   -1.4649   -0.5159 S   0  0  0  0  0  0  0  0  0  0  0  0
   -0.7315   -1.6623    1.0023 O   0  0  0  0  0  0  0  0  0  0  0  0
   -2.8967   -1.9834    2.3568 O   0  0  0  0  0  0  0  0  0  0  0  0
   -1.2887    2.3911    3.8042 C   0  0  0  0  0  0  0  0  0  0  0  0
   -3.3231   -3.2374   -0.8437 C   0  0  0  0  0  0  0  0  0  0  0  0
    0.0618   -1.0485    0.0019 C   0  0  0  0  0  0  0  0  0  0  0  0
   -4.1031   -3.5778   -2.0994 C   0  0  0  0  0  0  0  0  0  0  0  0
  1  2  1  0  0  0  0 
  1  3  1  0  0  0  0 
  4  2  1  0  0  0  0 
  2  5  1  0  0  0  0 
  2  6  2  0  0  0  0 
  3  7  1  0  0  0  0 
  4  8  1  0  0  0  0 
  5  9  1  0  0  0  0 
  8 10  1  0  0  0  0 
M  END
> <Name>
Phosphorodithioic acid, S,S-diethyl O-methyl ester

> <Source>
Chemidplus3DMolFile

> <Tox>
3.103

> <CAS>
22082-34-4

$$$$

  CDK

 27 26  0  0  0  0  0  0  0  0999 V2000
   -3.1240    2.0362   -3.6891 O   0  0  0  0  0  0  0  0  0  0  0  0
   -2.8461    2.2734   -2.3937 C   0  0  0  0  0  0  0  0  0  0  0  0
   -3.5232    2.8334   -4.5619 C   0  0  0  0  0  0  0  0  0  0  0  0
   -2.4562    0.9594   -1.6164 C   0  0  0  0  0  0  0  0  0  0  0  0
   -4.3566    3.6893   -4.2868 O   0  0  0  0  0  0  0  0  0  0  0  0
   -3.0563    2.7673   -5.9377 C   0  0  0  0  0  0  0  0  0  0  0  0
   -1.2657    0.2097   -2.3348 C   0  0  0  0  0  0  0  0  0  0  0  0
   -2.0631    1.3537   -0.1430 C   0  0  0  0  0  0  0  0  0  0  0  0
   -3.6867   -0.0248   -1.5891 C   0  0  0  0  0  0  0  0  0  0  0  0
   -1.9762    1.8203   -6.1895 C   0  0  0  0  0  0  0  0  0  0  0  0
    0.0904    0.9521   -2.4353 C   0  0  0  0  0  0  0  0  0  0  0  0
   -1.6573    0.2930    0.5778 O   0  0  0  0  0  0  0  0  0  0  0  0
   -4.8026    0.5794   -1.1418 O   0  0  0  0  0  0  0  0  0  0  0  0
   -2.2335    0.6235   -6.2283 O   0  0  0  0  0  0  0  0  0  0  0  0
   -0.6001    2.2514   -6.3609 C   0  0  0  0  0  0  0  0  0  0  0  0
   -1.1956    0.2843    1.7343 C   0  0  0  0  0  0  0  0  0  0  0  0
   -5.9109    0.0820   -0.8861 C   0  0  0  0  0  0  0  0  0  0  0  0
   -0.2132    0.9679    1.9938 O   0  0  0  0  0  0  0  0  0  0  0  0
   -1.7572   -0.5327    2.7965 C   0  0  0  0  0  0  0  0  0  0  0  0
   -6.2551    0.1589    0.2842 O   0  0  0  0  0  0  0  0  0  0  0  0
   -6.8296   -0.5487   -1.8282 C   0  0  0  0  0  0  0  0  0  0  0  0
   -2.9680   -1.2656    2.4479 C   0  0  0  0  0  0  0  0  0  0  0  0
   -6.5172   -0.4265   -3.2476 C   0  0  0  0  0  0  0  0  0  0  0  0
   -2.8764   -2.2856    1.7760 O   0  0  0  0  0  0  0  0  0  0  0  0
   -4.2826   -0.7955    2.8415 C   0  0  0  0  0  0  0  0  0  0  0  0
   -6.0675   -1.3990   -3.8406 O   0  0  0  0  0  0  0  0  0  0  0  0
   -6.7775    0.7839   -4.0013 C   0  0  0  0  0  0  0  0  0  0  0  0
  1  2  1  0  0  0  0 
  1  3  1  0  0  0  0 
  4  2  1  0  0  0  0 
  5  3  2  0  0  0  0 
  3  6  1  0  0  0  0 
  4  7  1  0  0  0  0 
  4  8  1  0  0  0  0 
  4  9  1  0  0  0  0 
  6 10  1  0  0  0  0 
  7 11  1  0  0  0  0 
 12  8  1  0  0  0  0 
 13  9  1  0  0  0  0 
 14 10  2  0  0  0  0 
 10 15  1  0  0  0  0 
 12 16  1  0  0  0  0 
 13 17  1  0  0  0  0 
 18 16  2  0  0  0  0 
 16 19  1  0  0  0  0 
 20 17  2  0  0  0  0 
 17 21  1  0  0  0  0 
 19 22  1  0  0  0  0 
 21 23  1  0  0  0  0 
 24 22  2  0  0  0  0 
 22 25  1  0  0  0  0 
 26 23  2  0  0  0  0 
 23 27  1  0  0  0  0 
M  END
> <Name>
Butanoic acid, 3-oxo-, 2-((1,3-dioxobutoxy)methyl)-2-ethyl-1,3-propanediyl ester

> <Source>
Chemidplus3DMolFile

> <Tox>
1.107

> <CAS>
22208-25-9

$$$$

  CDK

 19 19  0  0  0  0  0  0  0  0999 V2000
    1.1528   -2.0073    0.0000 P   0  0  0  0  0  0  0  0  0  0  0  0
    1.8300   -0.8545    0.0000 O   0  0  0  0  0  0  0  0  0  0  0  0
    2.3056   -2.6603    0.0000 O   0  0  0  0  0  0  0  0  0  0  0  0
    0.4998   -3.1601    0.0000 O   0  0  0  0  0  0  0  0  0  0  0  0
    0.0000   -1.3301    0.0000 O   0  0  0  0  0  0  0  0  0  0  0  0
    3.4584   -2.0073    0.0000 C   0  0  0  0  0  0  0  0  0  0  0  0
    1.1528   -4.3129    0.0000 C   0  0  0  0  0  0  0  0  0  0  0  0
    0.0000   -0.0000    0.0000 C   0  0  0  0  0  0  0  0  0  0  0  0
    3.4584   -0.6772    0.0000 C   0  0  0  0  0  0  0  0  0  0  0  0
    4.6192   -2.6603    0.0000 C   0  0  0  0  0  0  0  0  0  0  0  0
    2.3056   -0.0000    0.0000 Cl  0  0  0  0  0  0  0  0  0  0  0  0
    5.7720   -2.0073    0.0000 C   0  0  0  0  0  0  0  0  0  0  0  0
    4.6192   -3.9904    0.0000 C   0  0  0  0  0  0  0  0  0  0  0  0
    6.9248   -2.6603    0.0000 C   0  0  0  0  0  0  0  0  0  0  0  0
    5.7720   -0.6772    0.0000 Cl  0  0  0  0  0  0  0  0  0  0  0  0
    5.7720   -4.6676    0.0000 C   0  0  0  0  0  0  0  0  0  0  0  0
    6.9248   -3.9904    0.0000 C   0  0  0  0  0  0  0  0  0  0  0  0
    5.7720   -5.9977    0.0000 Cl  0  0  0  0  0  0  0  0  0  0  0  0
    8.0615   -4.6676    0.0000 Cl  0  0  0  0  0  0  0  0  0  0  0  0
  1  2  2  0  0  0  0 
  1  3  1  0  0  0  0 
  1  4  1  0  0  0  0 
  1  5  1  0  0  0  0 
  3  6  1  0  0  0  0 
  4  7  1  0  0  0  0 
  5  8  1  0  0  0  0 
  6  9  2  0  0  0  0 
  6 10  1  0  0  0  0 
  9 11  1  0  0  0  0 
 10 12  2  0  0  0  0 
 10 13  1  0  0  0  0 
 12 14  1  0  0  0  0 
 12 15  1  0  0  0  0 
 13 16  2  0  0  0  0 
 14 17  2  0  0  0  0 
 16 17  1  0  0  0  0 
 16 18  1  0  0  0  0 
 17 19  1  0  0  0  0 
M  END
> <Name>
Phosphoric acid, 2-chloro-1-(2,4,5-trichlorophenyl)ethenyl dimethyl ester, (Z)-

> <Source>
DSSTox2DMolFile

> <Tox>
2.882

> <CAS>
22248-79-9

$$$$

  CDK

 16 16  0  0  0  0  0  0  0  0999 V2000
    6.9343    1.4467    0.0000 C   0  0  0  0  0  0  0  0  0  0  0  0
    6.0363    1.9955    0.0000 O   0  0  0  0  0  0  0  0  0  0  0  0
    7.7824    1.8957    0.0000 N   0  0  0  0  0  0  0  0  0  0  0  0
    6.9343    0.4490    0.0000 O   0  0  0  0  0  0  0  0  0  0  0  0
    5.1883    1.4966    0.0000 C   0  0  0  0  0  0  0  0  0  0  0  0
    8.6305    1.3968    0.0000 C   0  0  0  0  0  0  0  0  0  0  0  0
    4.3402    1.9955    0.0000 C   0  0  0  0  0  0  0  0  0  0  0  0
    5.1883    0.4490    0.0000 C   0  0  0  0  0  0  0  0  0  0  0  0
    3.4422    1.4966    0.0000 C   0  0  0  0  0  0  0  0  0  0  0  0
    4.2903    0.0000    0.0000 C   0  0  0  0  0  0  0  0  0  0  0  0
    2.5941    1.9955    0.0000 N   0  0  0  0  0  0  0  0  0  0  0  0
    3.4422    0.4989    0.0000 C   0  0  0  0  0  0  0  0  0  0  0  0
    1.7461    1.5465    0.0000 C   0  0  0  0  0  0  0  0  0  0  0  0
    0.8481    2.0454    0.0000 N   0  0  0  0  0  0  0  0  0  0  0  0
    0.8481    3.0930    0.0000 C   0  0  0  0  0  0  0  0  0  0  0  0
    0.0000    1.5964    0.0000 C   0  0  0  0  0  0  0  0  0  0  0  0
  1  2  1  0  0  0  0 
  1  3  1  0  0  0  0 
  1  4  2  0  0  0  0 
  2  5  1  0  0  0  0 
  3  6  1  0  0  0  0 
  7  5  2  0  0  0  0 
  5  8  1  0  0  0  0 
  9  7  1  0  0  0  0 
  8 10  2  0  0  0  0 
  9 11  1  0  0  0  0 
 12  9  2  0  0  0  0 
 10 12  1  0  0  0  0 
 11 13  2  0  0  0  0 
 13 14  1  0  0  0  0 
 14 15  1  0  0  0  0 
 14 16  1  0  0  0  0 
M  END
> <Name>
Carbamic acid, methyl-, ester with N'-(m-hydroxyphenyl)-N,N-dimethylformamidine

> <Source>
NIST2DMolFile

> <Tox>
4.044

> <CAS>
22259-30-9

$$$$

  CDK

 20 21  0  0  0  0  0  0  0  0999 V2000
    6.0389    4.2064    0.0000 S   0  0  0  0  0  0  0  0  0  0  0  0
    6.0389    2.7904    0.0000 P   0  0  0  0  0  0  0  0  0  0  0  0
    4.8311    2.1240    0.0000 O   0  0  0  0  0  0  0  0  0  0  0  0
    7.4133    2.4572    0.0000 O   0  0  0  0  0  0  0  0  0  0  0  0
    7.0384    1.8325    0.0000 O   0  0  0  0  0  0  0  0  0  0  0  0
    3.6233    2.7904    0.0000 C   0  0  0  0  0  0  0  0  0  0  0  0
    8.3711    3.4151    0.0000 C   0  0  0  0  0  0  0  0  0  0  0  0
    8.3711    2.2073    0.0000 C   0  0  0  0  0  0  0  0  0  0  0  0
    3.6233    4.2064    0.0000 C   0  0  0  0  0  0  0  0  0  0  0  0
    2.4156    2.1240    0.0000 C   0  0  0  0  0  0  0  0  0  0  0  0
    9.7455    3.0819    0.0000 C   0  0  0  0  0  0  0  0  0  0  0  0
    9.3707    1.1661    0.0000 C   0  0  0  0  0  0  0  0  0  0  0  0
    2.4156    4.9144    0.0000 C   0  0  0  0  0  0  0  0  0  0  0  0
    1.2078    2.7904    0.0000 C   0  0  0  0  0  0  0  0  0  0  0  0
    2.4156    0.7080    0.0000 C   0  0  0  0  0  0  0  0  0  0  0  0
    1.2078    4.2064    0.0000 N   0  0  0  0  0  0  0  0  0  0  0  0
    2.4156    6.2888    0.0000 C   0  0  0  0  0  0  0  0  0  0  0  0
    0.0000    2.1240    0.0000 C   0  0  0  0  0  0  0  0  0  0  0  0
    1.2078    0.0000    0.0000 C   0  0  0  0  0  0  0  0  0  0  0  0
    0.0000    0.7080    0.0000 C   0  0  0  0  0  0  0  0  0  0  0  0
  1  2  2  0  0  0  0 
  2  3  1  0  0  0  0 
  2  4  1  0  0  0  0 
  2  5  1  0  0  0  0 
  3  6  1  0  0  0  0 
  4  7  1  0  0  0  0 
  5  8  1  0  0  0  0 
  6  9  2  0  0  0  0 
  6 10  1  0  0  0  0 
  7 11  1  0  0  0  0 
  8 12  1  0  0  0  0 
  9 13  1  0  0  0  0 
 14 10  2  0  0  0  0 
 10 15  1  0  0  0  0 
 13 16  2  0  0  0  0 
 13 17  1  0  0  0  0 
 16 14  1  0  0  0  0 
 14 18  1  0  0  0  0 
 19 15  2  0  0  0  0 
 18 20  2  0  0  0  0 
 20 19  1  0  0  0  0 
M  END
> <Name>
Phosphorothioic acid, O,O-diethyl O-(2-methyl-4-quinolyl) ester

> <Source>
IndexNet2DMolFile

> <Tox>
3.794

> <CAS>
22439-40-3

$$$$

  CDK

 20 22  0  0  0  0  0  0  0  0999 V2000
    0.1706   -1.1150    0.0000 N   0  0  0  0  0  0  0  0  0  0  0  0
   -0.6140   -1.3699    0.0000 N   0  0  0  0  0  0  0  0  0  0  0  0
    0.3421   -0.3080    0.0000 C   0  0  0  0  0  0  0  0  0  0  0  0
   -1.2815   -0.8850    0.0000 C   0  0  0  0  0  0  0  0  0  0  0  0
   -0.8690   -2.1546    0.0000 C   0  0  0  0  0  0  0  0  0  0  0  0
    1.1268   -0.0531    0.0000 C   0  0  0  0  0  0  0  0  0  0  0  0
   -1.2815   -0.0600    0.0000 C   0  0  0  0  0  0  0  0  0  0  0  0
   -1.9489   -1.3699    0.0000 C   0  0  0  0  0  0  0  0  0  0  0  0
   -1.6940   -2.1546    0.0000 S   0  0  0  0  0  0  0  0  0  0  0  0
   -0.3840   -2.8220    0.0000 S   0  0  0  0  0  0  0  0  0  0  0  0
    1.7399   -0.6051    0.0000 C   0  0  0  0  0  0  0  0  0  0  0  0
    1.2983    0.7539    0.0000 C   0  0  0  0  0  0  0  0  0  0  0  0
   -0.5670    0.3525    0.0000 C   0  0  0  0  0  0  0  0  0  0  0  0
   -1.9959    0.3525    0.0000 C   0  0  0  0  0  0  0  0  0  0  0  0
    2.5245   -0.3502    0.0000 C   0  0  0  0  0  0  0  0  0  0  0  0
    2.0829    1.0088    0.0000 C   0  0  0  0  0  0  0  0  0  0  0  0
   -0.5670    1.1775    0.0000 C   0  0  0  0  0  0  0  0  0  0  0  0
   -1.9959    1.1775    0.0000 C   0  0  0  0  0  0  0  0  0  0  0  0
    2.6960    0.4568    0.0000 C   0  0  0  0  0  0  0  0  0  0  0  0
   -1.2815    1.5900    0.0000 C   0  0  0  0  0  0  0  0  0  0  0  0
  1  2  1  0  0  0  0 
  1  3  2  0  0  0  0 
  2  4  1  0  0  0  0 
  2  5  1  0  0  0  0 
  3  6  1  0  0  0  0 
  4  7  1  0  0  0  0 
  4  8  2  0  0  0  0 
  9  5  1  0  0  0  0 
  5 10  2  0  0  0  0 
  6 11  1  0  0  0  0 
  6 12  2  0  0  0  0 
  7 13  1  0  0  0  0 
  7 14  2  0  0  0  0 
  8  9  1  0  0  0  0 
 11 15  2  0  0  0  0 
 16 12  1  0  0  0  0 
 13 17  2  0  0  0  0 
 18 14  1  0  0  0  0 
 15 19  1  0  0  0  0 
 19 16  2  0  0  0  0 
 17 20  1  0  0  0  0 
 20 18  2  0  0  0  0 
M  END
> <Name>
2(3H)-Thiazolethione, 4-phenyl-3-((phenylmethylene)amino)- (9CI)

> <Source>
Smiles

> <Tox>
1.472

> <CAS>
22454-80-4

$$$$

  CDK

 20 21  0  0  0  0  0  0  0  0999 V2000
    1.8340   -0.9480    4.0189 F   0  0  0  0  0  0  0  0  0  0  0  0
    1.8508   -0.9767    2.6799 C   0  0  0  0  0  0  0  0  0  0  0  0
    0.7815   -0.4468    1.9575 C   0  0  0  0  0  0  0  0  0  0  0  0
    2.9371   -1.5369    2.0077 C   0  0  0  0  0  0  0  0  0  0  0  0
    0.7984   -0.4774    0.5631 C   0  0  0  0  0  0  0  0  0  0  0  0
    2.9540   -1.5673    0.6132 C   0  0  0  0  0  0  0  0  0  0  0  0
    1.8846   -1.0376   -0.1090 C   0  0  0  0  0  0  0  0  0  0  0  0
    1.9028   -1.0676   -1.5555 C   0  0  0  0  0  0  0  0  0  0  0  0
    2.5715   -2.0932   -2.2238 C   0  0  0  0  0  0  0  0  0  0  0  0
    1.2513   -0.0706   -2.2813 C   0  0  0  0  0  0  0  0  0  0  0  0
    2.5887   -2.1218   -3.6183 C   0  0  0  0  0  0  0  0  0  0  0  0
    1.2684   -0.0991   -3.6758 C   0  0  0  0  0  0  0  0  0  0  0  0
    1.9372   -1.1246   -4.3444 C   0  0  0  0  0  0  0  0  0  0  0  0
    3.2925   -3.2010   -4.2972 C   0  0  0  0  0  0  0  0  0  0  0  0
    1.9426   -1.1345   -5.7071 O   0  0  0  0  0  0  0  0  0  0  0  0
    4.3487   -3.6653   -3.5763 O   0  0  0  0  0  0  0  0  0  0  0  0
    2.9933   -3.6653   -5.4010 O   0  0  0  0  0  0  0  0  0  0  0  0
    3.0183   -0.4380   -6.2802 C   0  0  0  0  0  0  0  0  0  0  0  0
    3.9013    0.1467   -5.6667 O   0  0  0  0  0  0  0  0  0  0  0  0
    2.9347   -0.5073   -7.7762 C   0  0  0  0  0  0  0  0  0  0  0  0
  1  2  1  0  0  0  0 
  3  2  2  0  0  0  0 
  4  2  1  0  0  0  0 
  5  3  1  0  0  0  0 
  6  4  2  0  0  0  0 
  7  5  2  0  0  0  0 
  7  6  1  0  0  0  0 
  8  7  1  0  0  0  0 
  8  9  2  0  0  0  0 
  8 10  1  0  0  0  0 
  9 11  1  0  0  0  0 
 10 12  2  0  0  0  0 
 11 13  2  0  0  0  0 
 11 14  1  0  0  0  0 
 13 12  1  0  0  0  0 
 15 13  1  0  0  0  0 
 16 14  1  0  0  0  0 
 17 14  2  0  0  0  0 
 15 18  1  0  0  0  0 
 19 18  2  0  0  0  0 
 18 20  1  0  0  0  0 
M  END
> <Name>
Flufenisal

> <Source>
Chemidplus3DMolFile

> <Tox>
3.171

> <CAS>
22494-27-5

$$$$

  CDK

 12 12  0  0  0  0  0  0  0  0999 V2000
    2.4899   -0.3984    6.2533 O   0  0  0  0  0  0  0  0  0  0  0  0
    2.7912   -0.2189    4.8687 C   0  0  0  0  0  0  0  0  0  0  0  0
    3.4107    0.2941    7.0859 C   0  0  0  0  0  0  0  0  0  0  0  0
    1.8337   -0.9465    4.0899 N   0  0  0  0  0  0  0  0  0  0  0  0
    3.0289    0.0580    8.5385 C   0  0  0  0  0  0  0  0  0  0  0  0
    1.8420   -0.9648    2.6796 C   0  0  0  0  0  0  0  0  0  0  0  0
    3.9574    0.7362    9.4306 N   0  0  0  0  0  0  0  0  0  0  0  0
    2.8144   -0.2517    1.9783 C   0  0  0  0  0  0  0  0  0  0  0  0
    0.8774   -1.6957    1.9860 C   0  0  0  0  0  0  0  0  0  0  0  0
    2.8221   -0.2693    0.5836 C   0  0  0  0  0  0  0  0  0  0  0  0
    0.8852   -1.7134    0.5912 C   0  0  0  0  0  0  0  0  0  0  0  0
    1.8576   -1.0001   -0.1099 C   0  0  0  0  0  0  0  0  0  0  0  0
  1  2  1  0  0  0  0 
  1  3  1  0  0  0  0 
  4  2  1  0  0  0  0 
  3  5  1  0  0  0  0 
  4  6  1  0  0  0  0 
  7  5  1  0  0  0  0 
  6  8  2  0  0  0  0 
  6  9  1  0  0  0  0 
  8 10  1  0  0  0  0 
  9 11  2  0  0  0  0 
 10 12  2  0  0  0  0 
 11 12  1  0  0  0  0 
M  END
> <Name>
Benzenamine, N-((2-aminoethoxy)methyl)-

> <Source>
Chemidplus3DMolFile

> <Tox>
5.425

> <CAS>
22683-30-3

$$$$

  CDK

 20 20  0  0  0  0  0  0  0  0999 V2000
    2.6001   -7.4054   -1.0755 Cl  0  0  0  0  0  0  0  0  0  0  0  0
    2.7942   -5.6113   -0.9551 C   0  0  0  0  0  0  0  0  0  0  0  0
    4.3077   -5.3236   -0.0069 Cl  0  0  0  0  0  0  0  0  0  0  0  0
    1.3422   -4.8964   -0.0712 S   0  0  0  0  0  0  0  0  0  0  0  0
    2.9648   -5.0197   -2.3796 C   0  0  0  0  0  0  0  0  0  0  0  0
    1.7589   -3.2089   -0.0387 N   0  0  0  0  0  0  0  0  0  0  0  0
    4.3944   -5.6750   -3.2485 Cl  0  0  0  0  0  0  0  0  0  0  0  0
    1.5257   -5.2816   -3.4235 Cl  0  0  0  0  0  0  0  0  0  0  0  0
    3.1436   -3.6702   -2.2720 F   0  0  0  0  0  0  0  0  0  0  0  0
    0.3714   -2.2845    0.4327 S   0  0  0  0  0  0  0  0  0  0  0  0
    2.9967   -2.8985    0.6493 C   0  0  0  0  0  0  0  0  0  0  0  0
    0.1766   -2.3508    1.8687 O   0  0  0  0  0  0  0  0  0  0  0  0
   -0.7322   -2.5565   -0.4716 O   0  0  0  0  0  0  0  0  0  0  0  0
    0.9321   -0.6420    0.0408 C   0  0  0  0  0  0  0  0  0  0  0  0
    3.1265   -3.2275    1.9872 C   0  0  0  0  0  0  0  0  0  0  0  0
    4.0198   -2.2798   -0.0477 C   0  0  0  0  0  0  0  0  0  0  0  0
    4.3172   -2.9282    2.6492 C   0  0  0  0  0  0  0  0  0  0  0  0
    5.2107   -1.9806    0.6142 C   0  0  0  0  0  0  0  0  0  0  0  0
    5.3594   -2.3049    1.9628 C   0  0  0  0  0  0  0  0  0  0  0  0
    6.8286   -1.9354    2.7799 Cl  0  0  0  0  0  0  0  0  0  0  0  0
  1  2  1  0  0  0  0 
  3  2  1  0  0  0  0 
  4  2  1  0  0  0  0 
  2  5  1  0  0  0  0 
  4  6  1  0  0  0  0 
  7  5  1  0  0  0  0 
  8  5  1  0  0  0  0 
  9  5  1  0  0  0  0 
 10  6  1  0  0  0  0 
  6 11  1  0  0  0  0 
 10 12  2  0  0  0  0 
 10 13  2  0  0  0  0 
 10 14  1  0  0  0  0 
 11 15  2  0  0  0  0 
 11 16  1  0  0  0  0 
 15 17  1  0  0  0  0 
 16 18  2  0  0  0  0 
 17 19  2  0  0  0  0 
 18 19  1  0  0  0  0 
 20 19  1  0  0  0  0 
M  END
> <Name>
Methanesulfonamide, N-(p-chlorophenyl)-N-((1,1,2,2-tetrachloro-2-fluoroethyl)thio)-

> <Source>
Chemidplus3DMolFile

> <Tox>
2.458

> <CAS>
22729-74-4

$$$$

  CDK

 21 22  0  0  0  0  0  0  0  0999 V2000
    9.6622    0.0000    0.0000 F   0  0  0  0  0  0  0  0  0  0  0  0
   10.3702    1.1661    0.0000 C   0  0  0  0  0  0  0  0  0  0  0  0
   11.7862    1.1661    0.0000 F   0  0  0  0  0  0  0  0  0  0  0  0
    9.6622    2.3739    0.0000 S   0  0  0  0  0  0  0  0  0  0  0  0
    8.9542    3.5817    0.0000 O   0  0  0  0  0  0  0  0  0  0  0  0
   10.8700    3.0819    0.0000 O   0  0  0  0  0  0  0  0  0  0  0  0
    8.4544    1.6659    0.0000 N   0  0  0  0  0  0  0  0  0  0  0  0
    7.2467    2.3739    0.0000 C   0  0  0  0  0  0  0  0  0  0  0  0
    7.2467    3.7899    0.0000 C   0  0  0  0  0  0  0  0  0  0  0  0
    6.0805    1.6659    0.0000 C   0  0  0  0  0  0  0  0  0  0  0  0
    6.0805    4.4563    0.0000 C   0  0  0  0  0  0  0  0  0  0  0  0
    4.8311    2.3739    0.0000 C   0  0  0  0  0  0  0  0  0  0  0  0
    4.8311    3.7899    0.0000 C   0  0  0  0  0  0  0  0  0  0  0  0
    3.6233    1.6659    0.0000 C   0  0  0  0  0  0  0  0  0  0  0  0
    3.6233    0.2499    0.0000 O   0  0  0  0  0  0  0  0  0  0  0  0
    2.4156    2.3739    0.0000 C   0  0  0  0  0  0  0  0  0  0  0  0
    1.2078    1.6659    0.0000 C   0  0  0  0  0  0  0  0  0  0  0  0
    2.4156    3.7899    0.0000 C   0  0  0  0  0  0  0  0  0  0  0  0
    0.0000    2.3739    0.0000 C   0  0  0  0  0  0  0  0  0  0  0  0
    1.2078    4.4563    0.0000 C   0  0  0  0  0  0  0  0  0  0  0  0
    0.0000    3.7899    0.0000 C   0  0  0  0  0  0  0  0  0  0  0  0
  1  2  1  0  0  0  0 
  2  3  1  0  0  0  0 
  2  4  1  0  0  0  0 
  4  5  2  0  0  0  0 
  4  6  2  0  0  0  0 
  4  7  1  0  0  0  0 
  7  8  1  0  0  0  0 
  8  9  1  0  0  0  0 
  8 10  2  0  0  0  0 
  9 11  2  0  0  0  0 
 12 10  1  0  0  0  0 
 11 13  1  0  0  0  0 
 13 12  2  0  0  0  0 
 12 14  1  0  0  0  0 
 14 15  2  0  0  0  0 
 14 16  1  0  0  0  0 
 16 17  2  0  0  0  0 
 16 18  1  0  0  0  0 
 17 19  1  0  0  0  0 
 20 18  2  0  0  0  0 
 19 21  2  0  0  0  0 
 21 20  1  0  0  0  0 
M  END
> <Name>
Methanesulfonamide, N-(3-benzoylphenyl)-1,1-difluoro- (9CI)

> <Source>
IndexNet2DMolFile

> <Tox>
2.618

> <CAS>
22736-85-2

$$$$

  CDK

 17 18  0  0  0  0  0  0  0  0999 V2000
    3.7389    2.6035   -0.4687 O   0  0  0  0  0  0  0  0  0  0  0  0
    5.0926    2.0867   -0.4884 C   0  0  0  0  0  0  0  0  0  0  0  0
    3.0164    1.4597   -0.3113 C   0  0  0  0  0  0  0  0  0  0  0  0
    5.1400    0.6460   -0.3404 O   0  0  0  0  0  0  0  0  0  0  0  0
    5.7297    2.4553   -1.8277 C   0  0  0  0  0  0  0  0  0  0  0  0
    5.8657    2.7162    0.6695 C   0  0  0  0  0  0  0  0  0  0  0  0
    3.8162    0.3422   -0.2383 C   0  0  0  0  0  0  0  0  0  0  0  0
    1.6419    1.3755   -0.2292 C   0  0  0  0  0  0  0  0  0  0  0  0
    4.9544    1.8647   -2.9889 C   0  0  0  0  0  0  0  0  0  0  0  0
    3.2859   -0.9214   -0.0795 C   0  0  0  0  0  0  0  0  0  0  0  0
    0.8576    2.4790   -0.3015 O   0  0  0  0  0  0  0  0  0  0  0  0
    1.0791    0.1072   -0.0682 C   0  0  0  0  0  0  0  0  0  0  0  0
    1.8964   -1.0347    0.0060 C   0  0  0  0  0  0  0  0  0  0  0  0
    0.4434    2.8357   -1.6019 C   0  0  0  0  0  0  0  0  0  0  0  0
    0.7598    2.2088   -2.6087 O   0  0  0  0  0  0  0  0  0  0  0  0
   -0.3474    3.9660   -1.5750 N   0  0  0  0  0  0  0  0  0  0  0  0
   -0.9195    4.5686   -2.7564 C   0  0  0  0  0  0  0  0  0  0  0  0
  1  2  1  0  0  0  0 
  1  3  1  0  0  0  0 
  4  2  1  0  0  0  0 
  2  5  1  0  0  0  0 
  2  6  1  0  0  0  0 
  3  7  2  0  0  0  0 
  3  8  1  0  0  0  0 
  4  7  1  0  0  0  0 
  5  9  1  0  0  0  0 
  7 10  1  0  0  0  0 
 11  8  1  0  0  0  0 
  8 12  2  0  0  0  0 
 10 13  2  0  0  0  0 
 11 14  1  0  0  0  0 
 12 13  1  0  0  0  0 
 15 14  2  0  0  0  0 
 16 14  1  0  0  0  0 
 16 17  1  0  0  0  0 
M  END
> <Name>
1,3-Benzodioxol-4-ol, 2-ethyl-2-methyl-, methylcarbamate

> <Source>
Chemidplus3DMolFile

> <Tox>
3.977

> <CAS>
22781-24-4

$$$$

  CDK

 25 27  0  0  0  0  0  0  0  0999 V2000
    1.1519   -4.2619    0.0000 C   0  0  0  0  0  0  0  0  0  0  0  0
    2.3037   -3.5938    0.0000 C   0  0  0  0  0  0  0  0  0  0  0  0
    1.1519   -5.5866    0.0000 C   0  0  0  0  0  0  0  0  0  0  0  0
    2.3037   -2.2692    0.0000 Cl  0  0  0  0  0  0  0  0  0  0  0  0
    3.4556   -4.2619    0.0000 C   0  0  0  0  0  0  0  0  0  0  0  0
    2.3037   -6.2547    0.0000 C   0  0  0  0  0  0  0  0  0  0  0  0
    0.0000   -6.2547    0.0000 Cl  0  0  0  0  0  0  0  0  0  0  0  0
    4.6075   -3.5938    0.0000 C   0  0  0  0  0  0  0  0  0  0  0  0
    3.4556   -5.5866    0.0000 C   0  0  0  0  0  0  0  0  0  0  0  0
    4.6075   -2.2692    0.0000 C   0  0  0  0  0  0  0  0  0  0  0  0
    5.7594   -4.2619    0.0000 O   0  0  0  0  0  0  0  0  0  0  0  0
    5.7594   -1.6011    0.0000 N   0  0  0  0  0  0  0  0  0  0  0  0
    6.9112   -3.5938    0.0000 C   0  0  0  0  0  0  0  0  0  0  0  0
    5.8976   -0.2764    0.0000 C   0  0  0  0  0  0  0  0  0  0  0  0
    6.9688   -2.1425    0.0000 C   0  0  0  0  0  0  0  0  0  0  0  0
    8.0631   -4.2619    0.0000 C   0  0  0  0  0  0  0  0  0  0  0  0
    7.1992   -0.0000    0.0000 N   0  0  0  0  0  0  0  0  0  0  0  0
    7.8673   -1.1519    0.0000 C   0  0  0  0  0  0  0  0  0  0  0  0
    9.2150   -3.5938    0.0000 C   0  0  0  0  0  0  0  0  0  0  0  0
    8.0631   -5.5866    0.0000 C   0  0  0  0  0  0  0  0  0  0  0  0
   10.3668   -4.2619    0.0000 C   0  0  0  0  0  0  0  0  0  0  0  0
    9.2150   -6.2547    0.0000 C   0  0  0  0  0  0  0  0  0  0  0  0
    6.9112   -6.2547    0.0000 Cl  0  0  0  0  0  0  0  0  0  0  0  0
   10.3668   -5.5866    0.0000 C   0  0  0  0  0  0  0  0  0  0  0  0
   11.5187   -6.2547    0.0000 Cl  0  0  0  0  0  0  0  0  0  0  0  0
  1  2  2  0  0  0  0 
  1  3  1  0  0  0  0 
  2  4  1  0  0  0  0 
  2  5  1  0  0  0  0 
  6  3  2  0  0  0  0 
  3  7  1  0  0  0  0 
  5  8  1  0  0  0  0 
  5  9  2  0  0  0  0 
  9  6  1  0  0  0  0 
  8 10  1  0  0  0  0 
  8 11  1  0  0  0  0 
 10 12  1  0  0  0  0 
 11 13  1  0  0  0  0 
 12 14  1  0  0  0  0 
 12 15  1  0  0  0  0 
 13 16  1  0  0  0  0 
 14 17  2  0  0  0  0 
 18 15  2  0  0  0  0 
 16 19  2  0  0  0  0 
 16 20  1  0  0  0  0 
 17 18  1  0  0  0  0 
 19 21  1  0  0  0  0 
 22 20  2  0  0  0  0 
 20 23  1  0  0  0  0 
 21 24  2  0  0  0  0 
 24 22  1  0  0  0  0 
 24 25  1  0  0  0  0 
M  END
> <Name>
Imidazole, 1-(2-(2,4-dichlorophenyl)-2-((2,4-dichlorophenyl)methoxy)ethyl)- (9CI)

> <Source>
DSSTox2DMolFile

> <Tox>
2.879

> <CAS>
22916-47-8

$$$$

  CDK

 17 17  0  0  0  0  0  0  0  0999 V2000
    0.4866    1.3559   -0.0920 N   0  0  0  0  0  0  0  0  0  0  0  0
   -0.4645    0.3565   -0.0243 C   0  0  0  0  0  0  0  0  0  0  0  0
    1.7936    1.0073    0.0748 C   0  0  0  0  0  0  0  0  0  0  0  0
   -0.1427   -0.9619    0.1749 N   0  0  0  0  0  0  0  0  0  0  0  0
   -1.7977    0.7662   -0.0841 N   0  0  0  0  0  0  0  0  0  0  0  0
    2.1760   -0.2817    0.2970 N   0  0  0  0  0  0  0  0  0  0  0  0
    3.0817    2.2203    0.0032 S   0  0  0  0  0  0  0  0  0  0  0  0
    1.1923   -1.2432    0.3513 C   0  0  0  0  0  0  0  0  0  0  0  0
   -2.8916   -0.1904   -0.4184 C   0  0  0  0  0  0  0  0  0  0  0  0
    2.2349    3.7863   -0.2825 C   0  0  0  0  0  0  0  0  0  0  0  0
    1.5127   -2.5631    0.6923 N   0  0  0  0  0  0  0  0  0  0  0  0
   -4.2258    0.3163    0.1805 C   0  0  0  0  0  0  0  0  0  0  0  0
   -3.0166   -0.3614   -1.9315 C   0  0  0  0  0  0  0  0  0  0  0  0
    2.8831   -3.0911    0.5128 C   0  0  0  0  0  0  0  0  0  0  0  0
   -4.1219    0.5662    1.6770 C   0  0  0  0  0  0  0  0  0  0  0  0
   -5.3280   -0.7016   -0.0806 C   0  0  0  0  0  0  0  0  0  0  0  0
    3.1370   -3.6600   -0.8705 C   0  0  0  0  0  0  0  0  0  0  0  0
  1  2  1  0  0  0  0 
  1  3  2  0  0  0  0 
  2  4  2  0  0  0  0 
  2  5  1  0  0  0  0 
  6  3  1  0  0  0  0 
  3  7  1  0  0  0  0 
  4  8  1  0  0  0  0 
  5  9  1  0  0  0  0 
  8  6  2  0  0  0  0 
  7 10  1  0  0  0  0 
  8 11  1  0  0  0  0 
  9 12  1  0  0  0  0 
  9 13  1  0  0  0  0 
 11 14  1  0  0  0  0 
 12 15  1  0  0  0  0 
 12 16  1  0  0  0  0 
 14 17  1  0  0  0  0 
M  END
> <Name>
1,3,5-Triazine-2,4-diamine, N-(1,2-dimethylpropyl)-N'-ethyl-6-(methylthio)- (9CI)

> <Source>
DougDB3DMolFile

> <Tox>
1.930

> <CAS>
22936-75-0

$$$$

  CDK

 20 22  0  0  0  0  0  0  0  0999 V2000
    3.9141   -0.5179    2.9051 N   0  0  0  0  0  0  0  0  0  0  0  0
    3.7678   -1.6513    2.0701 C   0  0  0  0  0  0  0  0  0  0  0  0
    4.9705   -0.3917    3.8569 C   0  0  0  0  0  0  0  0  0  0  0  0
    4.6833   -2.6351    2.2059 N   0  0  0  0  0  0  0  0  0  0  0  0
    2.7144   -1.7087    1.1642 C   0  0  0  0  0  0  0  0  0  0  0  0
    4.8779    0.9517    4.5762 C   0  0  0  0  0  0  0  0  0  0  0  0
    4.5873   -3.7456    1.4279 N   0  0  0  0  0  0  0  0  0  0  0  0
    2.6157   -2.8545    0.3608 C   0  0  0  0  0  0  0  0  0  0  0  0
    1.7658   -0.6811    1.0285 C   0  0  0  0  0  0  0  0  0  0  0  0
    6.0063    1.1203    5.5819 C   0  0  0  0  0  0  0  0  0  0  0  0
    3.5789   -3.8423    0.5344 C   0  0  0  0  0  0  0  0  0  0  0  0
    1.5696   -2.9621   -0.5708 C   0  0  0  0  0  0  0  0  0  0  0  0
    0.7305   -0.7975    0.1003 C   0  0  0  0  0  0  0  0  0  0  0  0
    3.6069   -5.0769   -0.2200 C   0  0  0  0  0  0  0  0  0  0  0  0
    0.6326   -1.9358   -0.6979 C   0  0  0  0  0  0  0  0  0  0  0  0
    4.3125   -5.1439   -1.4213 C   0  0  0  0  0  0  0  0  0  0  0  0
    2.9288   -6.1997    0.2544 C   0  0  0  0  0  0  0  0  0  0  0  0
    4.3398   -6.3339   -2.1486 C   0  0  0  0  0  0  0  0  0  0  0  0
    2.9563   -7.3897   -0.4728 C   0  0  0  0  0  0  0  0  0  0  0  0
    3.6619   -7.4567   -1.6743 C   0  0  0  0  0  0  0  0  0  0  0  0
  1  2  1  0  0  0  0 
  1  3  1  0  0  0  0 
  4  2  2  0  0  0  0 
  5  2  1  0  0  0  0 
  3  6  1  0  0  0  0 
  4  7  1  0  0  0  0 
  5  8  1  0  0  0  0 
  5  9  2  0  0  0  0 
  6 10  1  0  0  0  0 
  7 11  2  0  0  0  0 
  8 11  1  0  0  0  0 
  8 12  2  0  0  0  0 
  9 13  1  0  0  0  0 
 11 14  1  0  0  0  0 
 12 15  1  0  0  0  0 
 13 15  2  0  0  0  0 
 14 16  2  0  0  0  0 
 14 17  1  0  0  0  0 
 16 18  1  0  0  0  0 
 17 19  2  0  0  0  0 
 18 20  2  0  0  0  0 
 19 20  1  0  0  0  0 
M  END
> <Name>
1-Phthalazinamine, 4-phenyl-N-propyl-

> <Source>
Chemidplus3DMolFile

> <Tox>
2.703

> <CAS>
23099-87-8

$$$$

  CDK

 20 20  0  0  0  0  0  0  0  0999 V2000
   -8.5024    0.0526    6.4465 F   0  0  0  0  0  0  0  0  0  0  0  0
   -7.4533    0.8572    6.1033 C   0  0  0  0  0  0  0  0  0  0  0  0
   -6.9946    1.3672    7.2844 F   0  0  0  0  0  0  0  0  0  0  0  0
   -8.0047    1.9136    5.4379 F   0  0  0  0  0  0  0  0  0  0  0  0
   -6.4026    0.1617    5.3053 C   0  0  0  0  0  0  0  0  0  0  0  0
   -6.5511   -1.1866    4.9804 C   0  0  0  0  0  0  0  0  0  0  0  0
   -5.2711    0.8601    4.8840 C   0  0  0  0  0  0  0  0  0  0  0  0
   -5.5679   -1.8365    4.2342 C   0  0  0  0  0  0  0  0  0  0  0  0
   -4.2794    0.2155    4.1347 C   0  0  0  0  0  0  0  0  0  0  0  0
   -4.4363   -1.1382    3.8129 C   0  0  0  0  0  0  0  0  0  0  0  0
   -5.7263   -3.2785    3.8873 C   0  0  0  0  0  0  0  0  0  0  0  0
   -3.1425    0.9158    3.7136 N   0  0  0  0  0  0  0  0  0  0  0  0
   -6.8796   -3.8329    4.3650 F   0  0  0  0  0  0  0  0  0  0  0  0
   -5.7463   -3.5183    2.5428 F   0  0  0  0  0  0  0  0  0  0  0  0
   -4.7162   -4.0515    4.3822 F   0  0  0  0  0  0  0  0  0  0  0  0
   -2.8605    2.1309    4.2664 N   0  0  0  0  0  0  0  0  0  0  0  0
   -1.8093    2.2188    5.1696 C   0  0  0  0  0  0  0  0  0  0  0  0
   -1.1039    1.2708    5.5132 O   0  0  0  0  0  0  0  0  0  0  0  0
   -1.6530    3.5227    5.6322 N   0  0  0  0  0  0  0  0  0  0  0  0
   -0.6329    3.9115    6.5782 C   0  0  0  0  0  0  0  0  0  0  0  0
  1  2  1  0  0  0  0 
  3  2  1  0  0  0  0 
  4  2  1  0  0  0  0 
  5  2  1  0  0  0  0 
  5  6  2  0  0  0  0 
  5  7  1  0  0  0  0 
  8  6  1  0  0  0  0 
  9  7  2  0  0  0  0 
  8 10  2  0  0  0  0 
  8 11  1  0  0  0  0 
 12  9  1  0  0  0  0 
  9 10  1  0  0  0  0 
 13 11  1  0  0  0  0 
 14 11  1  0  0  0  0 
 15 11  1  0  0  0  0 
 12 16  1  0  0  0  0 
 16 17  1  0  0  0  0 
 18 17  2  0  0  0  0 
 19 17  1  0  0  0  0 
 19 20  1  0  0  0  0 
M  END
> <Name>
Hydrazinecarboxamide, 2-(3,5-bis(trifluoromethyl)phenyl)-N-methyl-

> <Source>
Chemidplus3DMolFile

> <Tox>
2.147

> <CAS>
23152-45-6

$$$$

  CDK

 17 17  0  0  0  0  0  0  0  0999 V2000
    1.5145   -1.8759    0.0000 C   0  0  0  0  0  0  0  0  0  0  0  0
    0.6895   -1.8759    0.0000 C   0  0  0  0  0  0  0  0  0  0  0  0
    0.6895   -2.7009    0.0000 C   0  0  0  0  0  0  0  0  0  0  0  0
    0.6895   -1.0509    0.0000 O   0  0  0  0  0  0  0  0  0  0  0  0
   -0.0250   -0.6384    0.0000 P   0  0  0  0  0  0  0  0  0  0  0  0
    0.3875    0.0761    0.0000 S   0  0  0  0  0  0  0  0  0  0  0  0
   -0.4375   -1.3529    0.0000 C   0  0  0  0  0  0  0  0  0  0  0  0
   -0.7395   -0.2259    0.0000 S   0  0  0  0  0  0  0  0  0  0  0  0
   -0.4375   -2.1779    0.0000 Cl  0  0  0  0  0  0  0  0  0  0  0  0
   -0.7395    0.5991    0.0000 C   0  0  0  0  0  0  0  0  0  0  0  0
   -0.0250    1.0116    0.0000 C   0  0  0  0  0  0  0  0  0  0  0  0
   -1.4539    1.0116    0.0000 C   0  0  0  0  0  0  0  0  0  0  0  0
   -0.0250    1.8366    0.0000 C   0  0  0  0  0  0  0  0  0  0  0  0
   -1.4539    1.8366    0.0000 C   0  0  0  0  0  0  0  0  0  0  0  0
   -0.7395    2.2491    0.0000 C   0  0  0  0  0  0  0  0  0  0  0  0
   -0.7395    3.0741    0.0000 O   0  0  0  0  0  0  0  0  0  0  0  0
   -0.0250    3.4866    0.0000 C   0  0  0  0  0  0  0  0  0  0  0  0
  1  2  1  0  0  0  0 
  2  3  1  0  0  0  0 
  2  4  1  0  0  0  0 
  4  5  1  0  0  0  0 
  5  6  2  0  0  0  0 
  5  7  1  0  0  0  0 
  5  8  1  0  0  0  0 
  7  9  1  0  0  0  0 
  8 10  1  0  0  0  0 
 10 11  1  0  0  0  0 
 10 12  2  0  0  0  0 
 11 13  2  0  0  0  0 
 14 12  1  0  0  0  0 
 13 15  1  0  0  0  0 
 15 14  2  0  0  0  0 
 15 16  1  0  0  0  0 
 16 17  1  0  0  0  0 
M  END
> <Name>
Phosphonodithioic acid, chloromethyl-, O-isopropyl S-(p-methoxyphenyl) ester

> <Source>
Smiles

> <Tox>
3.459

> <CAS>
23485-79-2

$$$$

  CDK

 21 21  0  0  0  0  0  0  0  0999 V2000
    4.5018    3.5014    0.0000 O   0  0  0  0  0  0  0  0  0  0  0  0
    5.5022    3.5014    0.0000 P   0  0  0  0  0  0  0  0  0  0  0  0
    4.0016    2.6010    0.0000 C   0  0  0  0  0  0  0  0  0  0  0  0
    6.5025    3.5014    0.0000 O   0  0  0  0  0  0  0  0  0  0  0  0
    5.5022    4.5018    0.0000 O   0  0  0  0  0  0  0  0  0  0  0  0
    5.5022    2.5010    0.0000 S   0  0  0  0  0  0  0  0  0  0  0  0
    3.0012    2.6010    0.0000 N   0  0  0  0  0  0  0  0  0  0  0  0
    4.5018    1.7507    0.0000 C   0  0  0  0  0  0  0  0  0  0  0  0
    7.0027    2.6010    0.0000 C   0  0  0  0  0  0  0  0  0  0  0  0
    6.3525    5.0020    0.0000 C   0  0  0  0  0  0  0  0  0  0  0  0
    2.5010    1.7507    0.0000 C   0  0  0  0  0  0  0  0  0  0  0  0
    4.0016    0.9004    0.0000 C   0  0  0  0  0  0  0  0  0  0  0  0
    8.0031    2.6010    0.0000 C   0  0  0  0  0  0  0  0  0  0  0  0
    6.3525    6.0024    0.0000 C   0  0  0  0  0  0  0  0  0  0  0  0
    1.5006    1.7507    0.0000 N   0  0  0  0  0  0  0  0  0  0  0  0
    3.0012    0.9004    0.0000 N   0  0  0  0  0  0  0  0  0  0  0  0
    4.5018    0.0000    0.0000 C   0  0  0  0  0  0  0  0  0  0  0  0
    1.0004    2.6010    0.0000 C   0  0  0  0  0  0  0  0  0  0  0  0
    1.0004    0.9004    0.0000 C   0  0  0  0  0  0  0  0  0  0  0  0
    0.0000    2.6010    0.0000 C   0  0  0  0  0  0  0  0  0  0  0  0
    0.0000    0.9004    0.0000 C   0  0  0  0  0  0  0  0  0  0  0  0
  1  2  1  0  0  0  0 
  1  3  1  0  0  0  0 
  2  4  1  0  0  0  0 
  2  5  1  0  0  0  0 
  2  6  2  0  0  0  0 
  3  7  2  0  0  0  0 
  8  3  1  0  0  0  0 
  4  9  1  0  0  0  0 
  5 10  1  0  0  0  0 
  7 11  1  0  0  0  0 
 12  8  2  0  0  0  0 
  9 13  1  0  0  0  0 
 10 14  1  0  0  0  0 
 11 15  1  0  0  0  0 
 11 16  2  0  0  0  0 
 16 12  1  0  0  0  0 
 12 17  1  0  0  0  0 
 15 18  1  0  0  0  0 
 15 19  1  0  0  0  0 
 18 20  1  0  0  0  0 
 19 21  1  0  0  0  0 
M  END
> <Name>
Phosphorothioic acid, O,O-diethyl O-(2-(diethylamino)-6-methyl-4-pyrimidinyl) ester

> <Source>
NIST2DMolFile

> <Tox>
3.377

> <CAS>
23505-41-1

$$$$

  CDK

 14 14  0  0  0  0  0  0  0  0999 V2000
    1.8614   -0.7726    4.0651 O   0  0  0  0  0  0  0  0  0  0  0  0
    1.8736   -0.8516    2.7066 C   0  0  0  0  0  0  0  0  0  0  0  0
    1.1815    0.3398    4.6450 C   0  0  0  0  0  0  0  0  0  0  0  0
    0.8129   -0.3274    1.9678 C   0  0  0  0  0  0  0  0  0  0  0  0
    2.9471   -1.4565    2.0530 C   0  0  0  0  0  0  0  0  0  0  0  0
    1.8332    0.6809    5.9681 C   0  0  0  0  0  0  0  0  0  0  0  0
    0.8258   -0.4081    0.5753 C   0  0  0  0  0  0  0  0  0  0  0  0
    2.9600   -1.5372    0.6605 C   0  0  0  0  0  0  0  0  0  0  0  0
    1.8994   -1.0130   -0.0784 C   0  0  0  0  0  0  0  0  0  0  0  0
    1.9125   -1.0947   -1.4864 N   0  0  0  0  0  0  0  0  0  0  0  0
    0.8588   -0.5786   -2.3041 C   0  0  0  0  0  0  0  0  0  0  0  0
    1.1487   -0.8210   -3.7816 C   0  0  0  0  0  0  0  0  0  0  0  0
    0.0819   -0.2930   -4.6449 C   0  0  0  0  0  0  0  0  0  0  0  0
   -0.7588    0.1230   -5.3280 N   0  0  0  0  0  0  0  0  0  0  0  0
  1  2  1  0  0  0  0 
  1  3  1  0  0  0  0 
  2  4  2  0  0  0  0 
  2  5  1  0  0  0  0 
  3  6  1  0  0  0  0 
  7  4  1  0  0  0  0 
  8  5  2  0  0  0  0 
  9  7  2  0  0  0  0 
  9  8  1  0  0  0  0 
 10  9  1  0  0  0  0 
 10 11  1  0  0  0  0 
 11 12  1  0  0  0  0 
 12 13  1  0  0  0  0 
 14 13  3  0  0  0  0 
M  END
> <Name>
Propanenitrile, 3-((4-ethoxyphenyl)amino)-

> <Source>
Chemidplus3DMolFile

> <Tox>
1.617

> <CAS>
23609-20-3

$$$$

  CDK

 14 14  0  0  0  0  0  0  0  0999 V2000
   -0.2838   -1.4342    0.0000 O   0  0  0  0  0  0  0  0  0  0  0  0
    0.0483   -0.6743    0.0000 C   0  0  0  0  0  0  0  0  0  0  0  0
   -0.1860    0.1266    0.0000 C   0  0  0  0  0  0  0  0  0  0  0  0
    0.6265   -1.2680    0.0000 C   0  0  0  0  0  0  0  0  0  0  0  0
    0.5655    0.4686    0.0000 C   0  0  0  0  0  0  0  0  0  0  0  0
   -0.8759    0.5988    0.0000 C   0  0  0  0  0  0  0  0  0  0  0  0
    0.6649   -2.0917    0.0000 C   0  0  0  0  0  0  0  0  0  0  0  0
    0.6440    1.2902    0.0000 C   0  0  0  0  0  0  0  0  0  0  0  0
    1.3625    0.2478    0.0000 C   0  0  0  0  0  0  0  0  0  0  0  0
   -0.7738    1.4280    0.0000 C   0  0  0  0  0  0  0  0  0  0  0  0
   -1.2526   -0.1685    0.0000 C   0  0  0  0  0  0  0  0  0  0  0  0
   -1.7386    0.7595    0.0000 C   0  0  0  0  0  0  0  0  0  0  0  0
    1.3893   -2.4923    0.0000 C   0  0  0  0  0  0  0  0  0  0  0  0
   -0.0228    1.7702    0.0000 C   0  0  0  0  0  0  0  0  0  0  0  0
  1  2  2  0  0  0  0 
  2  3  1  0  0  0  0 
  2  4  1  0  0  0  0 
  3  5  2  0  0  0  0 
  3  6  1  0  0  0  0 
  4  7  2  0  0  0  0 
  5  8  1  0  0  0  0 
  5  9  1  0  0  0  0 
 10  6  1  0  0  0  0 
  6 11  1  0  0  0  0 
  6 12  1  0  0  0  0 
  7 13  1  0  0  0  0 
  8 14  1  0  0  0  0 
 14 10  1  0  0  0  0 
M  END
> <Name>
2-Buten-1-one, 1-(2,6,6-trimethyl-1-cyclohexen-1-yl)-, (E)- (8CI,9CI)

> <Source>
Smiles

> <Tox>
1.819

> <CAS>
23726-91-2

$$$$

  CDK

 29 31  0  0  0  0  0  0  0  0999 V2000
    5.2470    0.5045    0.0000 C   0  0  0  0  0  0  0  0  0  0  0  0
    5.2470    1.5135    0.0000 C   0  0  0  0  0  0  0  0  0  0  0  0
    4.3893    0.0000    0.0000 C   0  0  0  0  0  0  0  0  0  0  0  0
    4.3893    2.0181    0.0000 C   0  0  0  0  0  0  0  0  0  0  0  0
    6.1046    2.0181    0.0000 N   0  0  0  0  0  0  0  0  0  0  0  0
    3.5316    0.5045    0.0000 C   0  0  0  0  0  0  0  0  0  0  0  0
    3.5316    1.5135    0.0000 C   0  0  0  0  0  0  0  0  0  0  0  0
    4.3893    2.9766    0.0000 C   0  0  0  0  0  0  0  0  0  0  0  0
    6.9623    1.5135    0.0000 C   0  0  0  0  0  0  0  0  0  0  0  0
    3.5316    3.4307    0.0000 O   0  0  0  0  0  0  0  0  0  0  0  0
    5.2470    3.4307    0.0000 O   0  0  0  0  0  0  0  0  0  0  0  0
    6.9623    0.5045    0.0000 C   0  0  0  0  0  0  0  0  0  0  0  0
    7.8200    2.0685    0.0000 C   0  0  0  0  0  0  0  0  0  0  0  0
    2.6235    2.9262    0.0000 C   0  0  0  0  0  0  0  0  0  0  0  0
    7.8200    0.0000    0.0000 C   0  0  0  0  0  0  0  0  0  0  0  0
    8.7281    1.5135    0.0000 C   0  0  0  0  0  0  0  0  0  0  0  0
    7.8200    2.9766    0.0000 C   0  0  0  0  0  0  0  0  0  0  0  0
    1.7658    3.3802    0.0000 C   0  0  0  0  0  0  0  0  0  0  0  0
    8.7281    0.5045    0.0000 N   0  0  0  0  0  0  0  0  0  0  0  0
    9.5858    2.0181    0.0000 C   0  0  0  0  0  0  0  0  0  0  0  0
    8.7281    3.4812    0.0000 C   0  0  0  0  0  0  0  0  0  0  0  0
    0.9081    2.8757    0.0000 C   0  0  0  0  0  0  0  0  0  0  0  0
    1.7658    4.4397    0.0000 O   0  0  0  0  0  0  0  0  0  0  0  0
    9.5858    2.9766    0.0000 C   0  0  0  0  0  0  0  0  0  0  0  0
   10.4435    1.5135    0.0000 C   0  0  0  0  0  0  0  0  0  0  0  0
    0.0000    3.3298    0.0000 O   0  0  0  0  0  0  0  0  0  0  0  0
   11.3516    1.0090    0.0000 F   0  0  0  0  0  0  0  0  0  0  0  0
    9.9894    0.6559    0.0000 F   0  0  0  0  0  0  0  0  0  0  0  0
   10.9480    2.3712    0.0000 F   0  0  0  0  0  0  0  0  0  0  0  0
  2  1  2  0  0  0  0 
  1  3  1  0  0  0  0 
  4  2  1  0  0  0  0 
  2  5  1  0  0  0  0 
  3  6  2  0  0  0  0 
  7  4  2  0  0  0  0 
  4  8  1  0  0  0  0 
  5  9  1  0  0  0  0 
  6  7  1  0  0  0  0 
  8 10  1  0  0  0  0 
  8 11  2  0  0  0  0 
 12  9  2  0  0  0  0 
  9 13  1  0  0  0  0 
 14 10  1  0  0  0  0 
 15 12  1  0  0  0  0 
 16 13  2  0  0  0  0 
 13 17  1  0  0  0  0 
 14 18  1  0  0  0  0 
 19 15  2  0  0  0  0 
 16 19  1  0  0  0  0 
 20 16  1  0  0  0  0 
 17 21  2  0  0  0  0 
 18 22  1  0  0  0  0 
 18 23  1  0  0  0  0 
 24 20  2  0  0  0  0 
 20 25  1  0  0  0  0 
 21 24  1  0  0  0  0 
 22 26  1  0  0  0  0 
 25 27  1  0  0  0  0 
 25 28  1  0  0  0  0 
 25 29  1  0  0  0  0 
M  END
> <Name>
Benzoic acid, 2-((8-(trifluoromethyl)-4-quinolinyl)amino)-, 2,3-dihydroxypropyl ester

> <Source>
NIST2DMolFile

> <Tox>
2.881

> <CAS>
23779-99-9

$$$$

  CDK

 29 31  0  0  0  0  0  0  0  0999 V2000
    0.0000    0.0000    0.0000 C   0  0  0  0  0  0  0  0  0  0  0  0
   -0.9800    1.1000   -0.4800 C   0  0  0  0  0  0  0  0  0  0  0  0
    1.4400    0.3800   -0.1600 C   0  0  0  0  0  0  0  0  0  0  0  0
   -0.3800   -1.2600   -0.6800 N   0  0  0  0  0  0  0  0  0  0  0  0
   -2.4400    0.7200   -0.2200 C   0  0  0  0  0  0  0  0  0  0  0  0
    2.3600   -0.5200   -0.7600 C   0  0  0  0  0  0  0  0  0  0  0  0
    1.9000    1.6200    0.3000 C   0  0  0  0  0  0  0  0  0  0  0  0
    0.6200   -2.3200   -0.5600 C   0  0  0  0  0  0  0  0  0  0  0  0
   -1.7400   -1.7000   -0.3400 C   0  0  0  0  0  0  0  0  0  0  0  0
   -3.3200    1.7000   -0.7400 O   0  0  0  0  0  0  0  0  0  0  0  0
   -2.7800   -0.6600   -0.8000 C   0  0  0  0  0  0  0  0  0  0  0  0
    3.7200   -0.1600   -0.9200 C   0  0  0  0  0  0  0  0  0  0  0  0
    1.9200   -1.8600   -1.2200 C   0  0  0  0  0  0  0  0  0  0  0  0
    3.2600    1.9800    0.1400 C   0  0  0  0  0  0  0  0  0  0  0  0
   -3.2600    2.8400   -0.0600 C   0  0  0  0  0  0  0  0  0  0  0  0
   -2.8800   -0.6200   -2.3200 C   0  0  0  0  0  0  0  0  0  0  0  0
    4.1600    1.1000   -0.4600 C   0  0  0  0  0  0  0  0  0  0  0  0
    3.6600    3.1600    0.5800 O   0  0  0  0  0  0  0  0  0  0  0  0
   -3.9800    4.0000   -0.7000 C   0  0  0  0  0  0  0  0  0  0  0  0
   -2.6800    2.9600    1.0000 O   0  0  0  0  0  0  0  0  0  0  0  0
   -3.7400   -1.5000   -2.9400 N   0  0  0  0  0  0  0  0  0  0  0  0
   -2.2200    0.1400   -2.9600 O   0  0  0  0  0  0  0  0  0  0  0  0
    5.4200    1.4400   -0.6000 O   0  0  0  0  0  0  0  0  0  0  0  0
    2.6800    4.1000    1.0200 C   0  0  0  0  0  0  0  0  0  0  0  0
   -3.8400   -1.4800   -4.4000 C   0  0  0  0  0  0  0  0  0  0  0  0
   -4.5600   -2.4400   -2.1800 C   0  0  0  0  0  0  0  0  0  0  0  0
    6.2800    0.5400   -1.2800 C   0  0  0  0  0  0  0  0  0  0  0  0
   -2.8200   -2.4200   -5.0400 C   0  0  0  0  0  0  0  0  0  0  0  0
   -5.9000   -1.8000   -1.7800 C   0  0  0  0  0  0  0  0  0  0  0  0
  1  2  1  0  0  0  0 
  1  3  1  0  0  0  0 
  1  4  1  0  0  0  0 
  2  5  1  0  0  0  0 
  6  3  2  0  0  0  0 
  3  7  1  0  0  0  0 
  4  8  1  0  0  0  0 
  4  9  1  0  0  0  0 
  5 10  1  0  0  0  0 
  5 11  1  0  0  0  0 
 12  6  1  0  0  0  0 
  6 13  1  0  0  0  0 
 14  7  2  0  0  0  0 
  8 13  1  0  0  0  0 
 11  9  1  0  0  0  0 
 10 15  1  0  0  0  0 
 11 16  1  0  0  0  0 
 17 12  2  0  0  0  0 
 17 14  1  0  0  0  0 
 14 18  1  0  0  0  0 
 15 19  1  0  0  0  0 
 15 20  2  0  0  0  0 
 16 21  1  0  0  0  0 
 16 22  2  0  0  0  0 
 23 17  1  0  0  0  0 
 24 18  1  0  0  0  0 
 21 25  1  0  0  0  0 
 21 26  1  0  0  0  0 
 27 23  1  0  0  0  0 
 25 28  1  0  0  0  0 
 29 26  1  0  0  0  0 
M  END
> <Name>
2H-Benzo(a)quinolizine-3-carboxamide, 2-(acetyloxy)-N,N-diethyl-1,3,4,6,7,11b-hexahydro-9,10-dimethoxy-, (2alpha,3beta,11balpha)- (9CI)

> <Source>
NIH3DMolFile

> <Tox>
2.586

> <CAS>
23844-24-8

$$$$

  CDK

 18 18  0  0  0  0  0  0  0  0999 V2000
    1.0593    3.3294    0.0000 O   0  0  0  0  0  0  0  0  0  0  0  0
    1.0593    4.3383    0.0000 C   0  0  0  0  0  0  0  0  0  0  0  0
    0.0000    2.9258    0.0000 C   0  0  0  0  0  0  0  0  0  0  0  0
    1.9169    4.8427    0.0000 C   0  0  0  0  0  0  0  0  0  0  0  0
    0.0000    2.0683    0.0000 C   0  0  0  0  0  0  0  0  0  0  0  0
    2.7745    4.3383    0.0000 N   0  0  0  0  0  0  0  0  0  0  0  0
    1.1098    1.5638    0.0000 O   0  0  0  0  0  0  0  0  0  0  0  0
    3.6321    4.8427    0.0000 C   0  0  0  0  0  0  0  0  0  0  0  0
    1.1098    0.5045    0.0000 C   0  0  0  0  0  0  0  0  0  0  0  0
    4.4896    4.3383    0.0000 C   0  0  0  0  0  0  0  0  0  0  0  0
    2.0178    0.0000    0.0000 C   0  0  0  0  0  0  0  0  0  0  0  0
    4.4896    3.3294    0.0000 O   0  0  0  0  0  0  0  0  0  0  0  0
    2.8754    0.5045    0.0000 N   0  0  0  0  0  0  0  0  0  0  0  0
    5.2967    2.9258    0.0000 C   0  0  0  0  0  0  0  0  0  0  0  0
    3.7329    0.0000    0.0000 C   0  0  0  0  0  0  0  0  0  0  0  0
    5.2967    2.0178    0.0000 C   0  0  0  0  0  0  0  0  0  0  0  0
    4.5905    0.5045    0.0000 C   0  0  0  0  0  0  0  0  0  0  0  0
    4.5905    1.5638    0.0000 O   0  0  0  0  0  0  0  0  0  0  0  0
  1  2  1  0  0  0  0 
  3  1  1  0  0  0  0 
  2  4  1  0  0  0  0 
  5  3  1  0  0  0  0 
  4  6  1  0  0  0  0 
  7  5  1  0  0  0  0 
  6  8  1  0  0  0  0 
  9  7  1  0  0  0  0 
  8 10  1  0  0  0  0 
 11  9  1  0  0  0  0 
 10 12  1  0  0  0  0 
 13 11  1  0  0  0  0 
 12 14  1  0  0  0  0 
 15 13  1  0  0  0  0 
 14 16  1  0  0  0  0 
 17 15  1  0  0  0  0 
 16 18  1  0  0  0  0 
 18 17  1  0  0  0  0 
M  END
> <Name>
1,10-Diaza-4,7,13,16-tetraoxacyclooctadecane

> <Source>
NIST2DMolFile

> <Tox>
1.887

> <CAS>
23978-55-4

$$$$

  CDK

 21 22  0  0  0  0  0  0  0  0999 V2000
    1.5042   -0.6614    0.0000 C   0  0  0  0  0  0  0  0  0  0  0  0
    0.7196   -0.4064    0.0000 C   0  0  0  0  0  0  0  0  0  0  0  0
    1.5042   -1.4864    0.0000 C   0  0  0  0  0  0  0  0  0  0  0  0
    2.2187   -0.2489    0.0000 C   0  0  0  0  0  0  0  0  0  0  0  0
    0.4647    0.3782    0.0000 O   0  0  0  0  0  0  0  0  0  0  0  0
    0.2347   -1.0739    0.0000 N   0  0  0  0  0  0  0  0  0  0  0  0
    0.7196   -1.7413    0.0000 C   0  0  0  0  0  0  0  0  0  0  0  0
    2.2187   -1.8989    0.0000 C   0  0  0  0  0  0  0  0  0  0  0  0
    2.9332   -0.6614    0.0000 C   0  0  0  0  0  0  0  0  0  0  0  0
   -0.5903   -1.0739    0.0000 C   0  0  0  0  0  0  0  0  0  0  0  0
    0.4647   -2.5259    0.0000 O   0  0  0  0  0  0  0  0  0  0  0  0
    2.9332   -1.4864    0.0000 C   0  0  0  0  0  0  0  0  0  0  0  0
   -1.4153   -1.0739    0.0000 S   0  0  0  0  0  0  0  0  0  0  0  0
   -1.8278   -0.3594    0.0000 P   0  0  0  0  0  0  0  0  0  0  0  0
   -2.5423   -0.7719    0.0000 S   0  0  0  0  0  0  0  0  0  0  0  0
   -1.1134    0.0531    0.0000 C   0  0  0  0  0  0  0  0  0  0  0  0
   -2.2403    0.3551    0.0000 O   0  0  0  0  0  0  0  0  0  0  0  0
   -0.3989    0.4656    0.0000 C   0  0  0  0  0  0  0  0  0  0  0  0
   -1.8278    1.0695    0.0000 C   0  0  0  0  0  0  0  0  0  0  0  0
   -1.4153    1.7840    0.0000 C   0  0  0  0  0  0  0  0  0  0  0  0
   -1.0028    2.4985    0.0000 C   0  0  0  0  0  0  0  0  0  0  0  0
  1  2  1  0  0  0  0 
  1  3  1  0  0  0  0 
  1  4  2  0  0  0  0 
  2  5  2  0  0  0  0 
  2  6  1  0  0  0  0 
  7  3  1  0  0  0  0 
  3  8  2  0  0  0  0 
  9  4  1  0  0  0  0 
  6 10  1  0  0  0  0 
  6  7  1  0  0  0  0 
  7 11  2  0  0  0  0 
  8 12  1  0  0  0  0 
 12  9  2  0  0  0  0 
 10 13  1  0  0  0  0 
 13 14  1  0  0  0  0 
 14 15  2  0  0  0  0 
 14 16  1  0  0  0  0 
 14 17  1  0  0  0  0 
 16 18  1  0  0  0  0 
 17 19  1  0  0  0  0 
 19 20  1  0  0  0  0 
 20 21  1  0  0  0  0 
M  END
> <Name>
Phosphonodithioic acid, ethyl-, O-propyl ester, S-ester with N-(mercaptomethyl)phthalimide

> <Source>
Smiles

> <Tox>
4.235

> <CAS>
24017-17-2

$$$$

  CDK

 33 37  0  0  0  0  0  0  0  0999 V2000
    2.1109    3.8721    0.1065 P   0  0  0  0  0  0  0  0  0  0  0  0
    1.3665    4.6940    1.3388 C   0  0  0  0  0  0  0  0  0  0  0  0
    1.4145    2.3701   -0.0644 C   0  0  0  0  0  0  0  0  0  0  0  0
    3.6737    3.7958    0.3167 N   0  0  0  0  0  0  0  0  0  0  0  0
    1.1488    6.0843    1.2188 C   0  0  0  0  0  0  0  0  0  0  0  0
    0.9594    4.0314    2.5240 C   0  0  0  0  0  0  0  0  0  0  0  0
    0.0056    2.2946   -0.2032 C   0  0  0  0  0  0  0  0  0  0  0  0
    2.1520    1.1631   -0.0136 C   0  0  0  0  0  0  0  0  0  0  0  0
    4.7733    4.8954    0.2217 P   0  0  0  0  0  0  0  0  0  0  0  0
    0.5798    6.8060    2.2851 C   0  0  0  0  0  0  0  0  0  0  0  0
    0.3888    4.7555    3.5853 C   0  0  0  0  0  0  0  0  0  0  0  0
   -0.6541    1.0523   -0.2180 C   0  0  0  0  0  0  0  0  0  0  0  0
    1.4908   -0.0813   -0.0460 C   0  0  0  0  0  0  0  0  0  0  0  0
    4.5093    5.8571   -1.1642 C   0  0  0  0  0  0  0  0  0  0  0  0
    4.8150    5.7741    1.6884 C   0  0  0  0  0  0  0  0  0  0  0  0
    6.2958    4.1532    0.0598 C   0  0  0  0  0  0  0  0  0  0  0  0
    0.2082    6.1446    3.4699 C   0  0  0  0  0  0  0  0  0  0  0  0
    0.0880   -0.1372   -0.1313 C   0  0  0  0  0  0  0  0  0  0  0  0
    3.7944    5.3441   -2.2825 C   0  0  0  0  0  0  0  0  0  0  0  0
    5.0389    7.1661   -1.3221 C   0  0  0  0  0  0  0  0  0  0  0  0
    4.0243    5.3766    2.7967 C   0  0  0  0  0  0  0  0  0  0  0  0
    5.6766    6.8779    1.9367 C   0  0  0  0  0  0  0  0  0  0  0  0
    7.4593    4.9361   -0.1577 C   0  0  0  0  0  0  0  0  0  0  0  0
    6.4688    2.7520    0.1892 C   0  0  0  0  0  0  0  0  0  0  0  0
    3.5470    6.1155   -3.4351 C   0  0  0  0  0  0  0  0  0  0  0  0
    4.8448    7.9260   -2.4897 C   0  0  0  0  0  0  0  0  0  0  0  0
    3.8727    6.1762    3.9440 C   0  0  0  0  0  0  0  0  0  0  0  0
    5.5728    7.6704    3.0945 C   0  0  0  0  0  0  0  0  0  0  0  0
    8.7448    4.3685   -0.1334 C   0  0  0  0  0  0  0  0  0  0  0  0
    7.7546    2.1747    0.1832 C   0  0  0  0  0  0  0  0  0  0  0  0
    4.0795    7.4082   -3.5423 C   0  0  0  0  0  0  0  0  0  0  0  0
    4.6308    7.3472    4.0810 C   0  0  0  0  0  0  0  0  0  0  0  0
    8.8945    2.9855    0.0479 C   0  0  0  0  0  0  0  0  0  0  0  0
  1  2  1  0  0  0  0 
  1  3  1  0  0  0  0 
  1  4  1  0  0  0  0 
  2  5  1  0  0  0  0 
  2  6  2  0  0  0  0 
  3  7  1  0  0  0  0 
  3  8  2  0  0  0  0 
  4  9  2  0  0  0  0 
  5 10  2  0  0  0  0 
 11  6  1  0  0  0  0 
  7 12  2  0  0  0  0 
 13  8  1  0  0  0  0 
  9 14  1  0  0  0  0 
  9 15  1  0  0  0  0 
  9 16  1  0  0  0  0 
 10 17  1  0  0  0  0 
 17 11  2  0  0  0  0 
 12 18  1  0  0  0  0 
 18 13  2  0  0  0  0 
 14 19  1  0  0  0  0 
 14 20  2  0  0  0  0 
 15 21  1  0  0  0  0 
 15 22  2  0  0  0  0 
 16 23  1  0  0  0  0 
 16 24  2  0  0  0  0 
 19 25  2  0  0  0  0 
 26 20  1  0  0  0  0 
 21 27  2  0  0  0  0 
 28 22  1  0  0  0  0 
 23 29  2  0  0  0  0 
 30 24  1  0  0  0  0 
 25 31  1  0  0  0  0 
 31 26  2  0  0  0  0 
 27 32  1  0  0  0  0 
 32 28  2  0  0  0  0 
 29 33  1  0  0  0  0 
 33 30  2  0  0  0  0 
M  END
> <Name>
Phosphinic amide, diphenyl-N-triphenylphosphoranylidene-

> <Source>
Other

> <Tox>
1.853

> <CAS>
24082-36-8

$$$$

  CDK

 10  9  0  0  0  0  0  0  0  0999 V2000
   -2.0570    2.1248   -0.1669 C   0  0  0  0  0  0  0  0  0  0  0  0
   -1.9825    0.9285   -0.7358 C   0  0  0  0  0  0  0  0  0  0  0  0
   -1.7610   -0.3761   -0.0024 C   0  0  0  0  0  0  0  0  0  0  0  0
   -0.3336   -0.8960   -0.2824 C   0  0  0  0  0  0  0  0  0  0  0  0
   -1.8831   -0.2575    1.4086 O   0  0  0  0  0  0  0  0  0  0  0  0
   -2.7867   -1.3998   -0.5247 C   0  0  0  0  0  0  0  0  0  0  0  0
    0.7602    0.0486    0.1873 C   0  0  0  0  0  0  0  0  0  0  0  0
    2.1338   -0.4595   -0.2207 C   0  0  0  0  0  0  0  0  0  0  0  0
    3.2333    0.4745    0.2591 C   0  0  0  0  0  0  0  0  0  0  0  0
    4.6013   -0.0244   -0.1481 C   0  0  0  0  0  0  0  0  0  0  0  0
  1  2  2  0  0  0  0 
  2  3  1  0  0  0  0 
  3  4  1  0  0  0  0 
  3  5  1  0  0  0  0 
  3  6  1  0  0  0  0 
  4  7  1  0  0  0  0 
  7  8  1  0  0  0  0 
  8  9  1  0  0  0  0 
  9 10  1  0  0  0  0 
M  END
> <Name>
1-Octen-3-ol, 3-methyl-

> <Source>
DougDB3DMolFile

> <Tox>
1.898

> <CAS>
24089-00-7

$$$$

  CDK

 20 20  0  0  0  0  0  0  0  0999 V2000
    6.4453    2.7603   -1.5579 S   0  0  0  0  0  0  0  0  0  0  0  0
    5.2711    2.2295   -0.4799 C   0  0  0  0  0  0  0  0  0  0  0  0
    5.4523    1.0241    0.1682 N   0  0  0  0  0  0  0  0  0  0  0  0
    4.1040    2.9044   -0.1656 N   0  0  0  0  0  0  0  0  0  0  0  0
    4.5014    0.5360    1.0215 N   0  0  0  0  0  0  0  0  0  0  0  0
    3.6760    4.1820   -0.7022 C   0  0  0  0  0  0  0  0  0  0  0  0
    4.7229    0.5952    2.4031 C   0  0  0  0  0  0  0  0  0  0  0  0
    5.7251    1.4219    2.9244 C   0  0  0  0  0  0  0  0  0  0  0  0
    3.9443   -0.1722    3.2774 C   0  0  0  0  0  0  0  0  0  0  0  0
    5.9456    1.4804    4.3005 C   0  0  0  0  0  0  0  0  0  0  0  0
    4.1647   -0.1136    4.6535 C   0  0  0  0  0  0  0  0  0  0  0  0
    5.1654    0.7127    5.1650 C   0  0  0  0  0  0  0  0  0  0  0  0
    7.0168    2.3622    4.8474 C   0  0  0  0  0  0  0  0  0  0  0  0
    3.3293   -0.9330    5.5782 C   0  0  0  0  0  0  0  0  0  0  0  0
    7.1207    2.3178    6.2087 F   0  0  0  0  0  0  0  0  0  0  0  0
    8.2653    2.0570    4.3850 F   0  0  0  0  0  0  0  0  0  0  0  0
    6.8232    3.6774    4.5380 F   0  0  0  0  0  0  0  0  0  0  0  0
    3.6547   -0.7746    6.8954 F   0  0  0  0  0  0  0  0  0  0  0  0
    1.9950   -0.6506    5.5048 F   0  0  0  0  0  0  0  0  0  0  0  0
    3.4342   -2.2717    5.3337 F   0  0  0  0  0  0  0  0  0  0  0  0
  1  2  2  0  0  0  0 
  3  2  1  0  0  0  0 
  4  2  1  0  0  0  0 
  5  3  1  0  0  0  0 
  4  6  1  0  0  0  0 
  5  7  1  0  0  0  0 
  7  8  2  0  0  0  0 
  7  9  1  0  0  0  0 
 10  8  1  0  0  0  0 
 11  9  2  0  0  0  0 
 10 12  2  0  0  0  0 
 10 13  1  0  0  0  0 
 11 12  1  0  0  0  0 
 11 14  1  0  0  0  0 
 15 13  1  0  0  0  0 
 16 13  1  0  0  0  0 
 17 13  1  0  0  0  0 
 18 14  1  0  0  0  0 
 19 14  1  0  0  0  0 
 20 14  1  0  0  0  0 
M  END
> <Name>
Semicarbazide, 1-(alpha,alpha,alpha,alpha',alpha',alpha'-hexafluoro-3,5-xylyl)-4-methyl-3-thio-

> <Source>
Chemidplus3DMolFile

> <Tox>
2.884

> <CAS>
24095-80-5

$$$$

  CDK

 30 29  0  0  0  0  0  0  0  0999 V2000
    1.1483   -3.9844    0.0000 C   0  0  0  0  0  0  0  0  0  0  0  0
    0.0000   -4.6484    0.0000 N   0  0  0  0  0  0  0  0  0  0  0  0
    2.3104   -4.6484    0.0000 N   0  0  0  0  0  0  0  0  0  0  0  0
    1.1483   -2.6562    0.0000 N   0  0  0  0  0  0  0  0  0  0  0  0
    3.4587   -3.9844    0.0000 C   0  0  0  0  0  0  0  0  0  0  0  0
    4.6069   -4.6484    0.0000 C   0  0  0  0  0  0  0  0  0  0  0  0
    5.7690   -3.9844    0.0000 C   0  0  0  0  0  0  0  0  0  0  0  0
    6.9173   -4.6484    0.0000 C   0  0  0  0  0  0  0  0  0  0  0  0
    8.0656   -3.9844    0.0000 C   0  0  0  0  0  0  0  0  0  0  0  0
    6.9173   -5.9904    0.0000 N   0  0  0  0  0  0  0  0  0  0  0  0
    8.0656   -2.6562    0.0000 O   0  0  0  0  0  0  0  0  0  0  0  0
    8.0656   -6.6544    0.0000 C   0  0  0  0  0  0  0  0  0  0  0  0
    9.2277   -5.9904    0.0000 C   0  0  0  0  0  0  0  0  0  0  0  0
    8.0656   -7.9826    0.0000 O   0  0  0  0  0  0  0  0  0  0  0  0
   10.3760   -6.6544    0.0000 C   0  0  0  0  0  0  0  0  0  0  0  0
    9.2277   -4.6484    0.0000 N   0  0  0  0  0  0  0  0  0  0  0  0
   10.3760   -7.9826    0.0000 C   0  0  0  0  0  0  0  0  0  0  0  0
   10.3760   -3.9844    0.0000 C   0  0  0  0  0  0  0  0  0  0  0  0
    9.2277   -8.6466    0.0000 C   0  0  0  0  0  0  0  0  0  0  0  0
   11.5242   -8.6466    0.0000 C   0  0  0  0  0  0  0  0  0  0  0  0
   10.3760   -2.6562    0.0000 C   0  0  0  0  0  0  0  0  0  0  0  0
   11.5242   -4.6484    0.0000 O   0  0  0  0  0  0  0  0  0  0  0  0
   11.5242   -1.9922    0.0000 C   0  0  0  0  0  0  0  0  0  0  0  0
    9.2277   -1.9922    0.0000 N   0  0  0  0  0  0  0  0  0  0  0  0
   12.6863   -2.6562    0.0000 C   0  0  0  0  0  0  0  0  0  0  0  0
    9.2277   -0.6641    0.0000 C   0  0  0  0  0  0  0  0  0  0  0  0
   12.6863   -3.9844    0.0000 C   0  0  0  0  0  0  0  0  0  0  0  0
   13.8346   -1.9922    0.0000 C   0  0  0  0  0  0  0  0  0  0  0  0
    8.0656   -0.0000    0.0000 O   0  0  0  0  0  0  0  0  0  0  0  0
   10.3760   -0.0000    0.0000 C   0  0  0  0  0  0  0  0  0  0  0  0
  1  2  2  0  0  0  0 
  1  3  1  0  0  0  0 
  1  4  1  0  0  0  0 
  3  5  1  0  0  0  0 
  5  6  1  0  0  0  0 
  7  6  1  0  0  0  0 
  8  7  1  0  0  0  0 
  9  8  1  0  0  0  0 
  8 10  1  1  0  0  0 
  9 11  2  0  0  0  0 
 10 12  1  0  0  0  0 
 12 13  1  0  0  0  0 
 12 14  2  0  0  0  0 
 13 15  1  0  0  0  0 
 13 16  1  1  0  0  0 
 15 17  1  0  0  0  0 
 16 18  1  0  0  0  0 
 17 19  1  0  0  0  0 
 17 20  1  0  0  0  0 
 18 21  1  0  0  0  0 
 18 22  2  0  0  0  0 
 21 23  1  0  0  0  0 
 21 24  1  1  0  0  0 
 23 25  1  0  0  0  0 
 24 26  1  0  0  0  0 
 25 27  1  0  0  0  0 
 25 28  1  0  0  0  0 
 26 29  2  0  0  0  0 
 26 30  1  0  0  0  0 
M  END
> <Name>
Valeramide, 2-(2-acetamido-4-methylvaleramido)-N-(1-formyl-4-guanidinobutyl)-4-methyl-

> <Source>
DSSTox2DMolFile

> <Tox>
2.773

> <CAS>
24365-47-7

$$$$

  CDK

 18 19  0  0  0  0  0  0  0  0999 V2000
   -0.7348    2.4259    0.3076 O   0  0  0  0  0  0  0  0  0  0  0  0
   -1.0793    1.1133   -0.1515 C   0  0  0  0  0  0  0  0  0  0  0  0
   -0.1448    2.2225    1.6015 C   0  0  0  0  0  0  0  0  0  0  0  0
   -1.3279    0.3518    1.1358 C   0  0  0  0  0  0  0  0  0  0  0  0
   -2.2774    1.1825   -1.0770 C   0  0  0  0  0  0  0  0  0  0  0  0
   -0.3042    0.8528    2.0019 O   0  0  0  0  0  0  0  0  0  0  0  0
    1.3087    2.6218    1.5736 C   0  0  0  0  0  0  0  0  0  0  0  0
   -1.2090   -1.1530    1.0036 C   0  0  0  0  0  0  0  0  0  0  0  0
    1.6972    3.9385    1.8361 C   0  0  0  0  0  0  0  0  0  0  0  0
    2.2799    1.6608    1.2797 C   0  0  0  0  0  0  0  0  0  0  0  0
    0.7669    4.8912    2.1249 O   0  0  0  0  0  0  0  0  0  0  0  0
    3.0463    4.2913    1.8048 C   0  0  0  0  0  0  0  0  0  0  0  0
    3.6290    2.0135    1.2486 C   0  0  0  0  0  0  0  0  0  0  0  0
    0.2610    5.5831    1.0082 C   0  0  0  0  0  0  0  0  0  0  0  0
    4.0122    3.3288    1.5110 C   0  0  0  0  0  0  0  0  0  0  0  0
    0.6161    5.3651   -0.1464 O   0  0  0  0  0  0  0  0  0  0  0  0
   -0.6705    6.5233    1.3981 N   0  0  0  0  0  0  0  0  0  0  0  0
   -1.3650    7.3900    0.4747 C   0  0  0  0  0  0  0  0  0  0  0  0
  1  2  1  0  0  0  0 
  1  3  1  0  0  0  0 
  2  4  1  0  0  0  0 
  2  5  1  0  0  0  0 
  6  3  1  0  0  0  0 
  3  7  1  0  0  0  0 
  6  4  1  0  0  0  0 
  4  8  1  0  0  0  0 
  7  9  1  0  0  0  0 
  7 10  2  0  0  0  0 
 11  9  1  0  0  0  0 
  9 12  2  0  0  0  0 
 10 13  1  0  0  0  0 
 11 14  1  0  0  0  0 
 12 15  1  0  0  0  0 
 13 15  2  0  0  0  0 
 16 14  2  0  0  0  0 
 17 14  1  0  0  0  0 
 17 18  1  0  0  0  0 
M  END
> <Name>
Carbamic acid, methyl-, o-(4,5-dimethyl-1,3-dioxolan-2-yl)phenyl ester, trans-(+)-

> <Source>
Chemidplus3DMolFile

> <Tox>
3.622

> <CAS>
24380-85-6

$$$$

  CDK

 15 15  0  0  0  0  0  0  0  0999 V2000
   -0.1968    0.2281    0.0000 Cl  0  0  0  0  0  0  0  0  0  0  0  0
    0.5176   -0.1844    0.0000 C   0  0  0  0  0  0  0  0  0  0  0  0
    0.1051   -0.8989    0.0000 P   0  0  0  0  0  0  0  0  0  0  0  0
   -0.3074   -1.6134    0.0000 S   0  0  0  0  0  0  0  0  0  0  0  0
    0.8196   -1.3114    0.0000 O   0  0  0  0  0  0  0  0  0  0  0  0
   -0.6093   -0.4864    0.0000 S   0  0  0  0  0  0  0  0  0  0  0  0
    0.8196   -2.1364    0.0000 C   0  0  0  0  0  0  0  0  0  0  0  0
   -0.6093    0.3386    0.0000 C   0  0  0  0  0  0  0  0  0  0  0  0
    0.8196   -2.9614    0.0000 C   0  0  0  0  0  0  0  0  0  0  0  0
    0.1051    0.7511    0.0000 C   0  0  0  0  0  0  0  0  0  0  0  0
   -1.3238    0.7511    0.0000 C   0  0  0  0  0  0  0  0  0  0  0  0
    0.1051    1.5761    0.0000 C   0  0  0  0  0  0  0  0  0  0  0  0
   -1.3238    1.5761    0.0000 C   0  0  0  0  0  0  0  0  0  0  0  0
   -0.6093    1.9886    0.0000 C   0  0  0  0  0  0  0  0  0  0  0  0
   -0.6093    2.8136    0.0000 C   0  0  0  0  0  0  0  0  0  0  0  0
  1  2  1  0  0  0  0 
  2  3  1  0  0  0  0 
  3  4  2  0  0  0  0 
  3  5  1  0  0  0  0 
  3  6  1  0  0  0  0 
  5  7  1  0  0  0  0 
  6  8  1  0  0  0  0 
  7  9  1  0  0  0  0 
  8 10  1  0  0  0  0 
  8 11  2  0  0  0  0 
 10 12  2  0  0  0  0 
 13 11  1  0  0  0  0 
 12 14  1  0  0  0  0 
 14 13  2  0  0  0  0 
 14 15  1  0  0  0  0 
M  END
> <Name>
Phosphonodithioic acid, chloromethyl-, O-ethyl S-(p-tolyl) ester

> <Source>
Smiles

> <Tox>
2.922

> <CAS>
24441-47-2

$$$$

  CDK

 15 15  0  0  0  0  0  0  0  0999 V2000
   -1.6372   -0.9446   -1.1895 C   0  0  0  0  0  0  0  0  0  0  0  0
   -2.3963   -0.8203    0.1429 C   0  0  0  0  0  0  0  0  0  0  0  0
   -0.7553    0.1346   -1.4256 O   0  0  0  0  0  0  0  0  0  0  0  0
   -3.3018    0.3937    0.4039 C   0  0  0  0  0  0  0  0  0  0  0  0
   -2.2644   -1.7066    0.9636 O   0  0  0  0  0  0  0  0  0  0  0  0
    0.5090    0.0400   -0.8651 C   0  0  0  0  0  0  0  0  0  0  0  0
   -2.4518    1.4758    1.0697 C   0  0  0  0  0  0  0  0  0  0  0  0
   -4.4469    0.0060    1.3415 C   0  0  0  0  0  0  0  0  0  0  0  0
   -3.9050    0.9365   -0.8894 C   0  0  0  0  0  0  0  0  0  0  0  0
    1.1446    1.2681   -0.6338 C   0  0  0  0  0  0  0  0  0  0  0  0
    1.1614   -1.1711   -0.6101 C   0  0  0  0  0  0  0  0  0  0  0  0
    2.4469    1.2733   -0.1534 C   0  0  0  0  0  0  0  0  0  0  0  0
    2.4619   -1.1534   -0.1240 C   0  0  0  0  0  0  0  0  0  0  0  0
    3.0967    0.0662    0.0983 C   0  0  0  0  0  0  0  0  0  0  0  0
    4.6775    0.0835    0.6854 Cl  0  0  0  0  0  0  0  0  0  0  0  0
  1  2  1  0  0  0  0 
  1  3  1  0  0  0  0 
  2  4  1  0  0  0  0 
  2  5  2  0  0  0  0 
  3  6  1  0  0  0  0 
  4  7  1  0  0  0  0 
  4  8  1  0  0  0  0 
  4  9  1  0  0  0  0 
  6 10  1  0  0  0  0 
  6 11  2  0  0  0  0 
 10 12  2  0  0  0  0 
 13 11  1  0  0  0  0 
 12 14  1  0  0  0  0 
 14 13  2  0  0  0  0 
 14 15  1  0  0  0  0 
M  END
> <Name>
2-Butanone, 1-(p-chlorophenoxy)-3,3-dimethyl- (8CI)

> <Source>
DougDB3DMolFile

> <Tox>
1.688

> <CAS>
24473-06-1

$$$$

  CDK

 32 33  0  0  0  0  0  0  0  0999 V2000
    6.1638    3.5678   -0.2722 O   0  0  0  0  0  0  0  0  0  0  0  0
    5.4396    2.7704    0.3054 C   0  0  0  0  0  0  0  0  0  0  0  0
    4.4843    3.2600    1.0356 N   0  0  0  0  0  0  0  0  0  0  0  0
    5.7401    1.3463    0.2452 C   0  0  0  0  0  0  0  0  0  0  0  0
    3.3012    2.9156    0.9218 N   0  0  0  0  0  0  0  0  0  0  0  0
    5.3753    0.6790   -1.0553 N   0  0  0  0  0  0  0  0  0  0  0  0
    2.4187    3.5360    0.2239 C   0  0  0  0  0  0  0  0  0  0  0  0
    5.1807   -0.7955   -0.8696 C   0  0  0  0  0  0  0  0  0  0  0  0
    6.3145    1.0008   -2.1837 C   0  0  0  0  0  0  0  0  0  0  0  0
    1.1409    3.0412    0.1248 C   0  0  0  0  0  0  0  0  0  0  0  0
    4.8331   -1.5292   -2.1831 C   0  0  0  0  0  0  0  0  0  0  0  0
    6.0115    0.2266   -3.4958 C   0  0  0  0  0  0  0  0  0  0  0  0
    0.7051    1.8755    0.6646 O   0  0  0  0  0  0  0  0  0  0  0  0
    0.0836    3.6264   -0.5688 C   0  0  0  0  0  0  0  0  0  0  0  0
    5.8323   -1.2296   -3.2459 N   0  0  0  0  0  0  0  0  0  0  0  0
   -0.5978    1.6889    0.3277 C   0  0  0  0  0  0  0  0  0  0  0  0
   -1.0067    2.7824   -0.4364 C   0  0  0  0  0  0  0  0  0  0  0  0
    7.0009   -2.1530   -3.4393 C   0  0  0  0  0  0  0  0  0  0  0  0
   -1.3159    0.6269    0.6615 N   0  0  0  0  0  0  0  0  0  0  0  0
    8.3164   -1.8157   -2.6758 C   0  0  0  0  0  0  0  0  0  0  0  0
   -0.8470   -0.2176    1.3187 O   0  0  0  0  0  0  0  0  0  0  0  0
   -2.4179    0.4804    0.3036 O   0  0  0  0  0  0  0  0  0  0  0  0
    9.3982   -2.9324   -2.7847 C   0  0  0  0  0  0  0  0  0  0  0  0
   10.8328   -2.4645   -2.3986 C   0  0  0  0  0  0  0  0  0  0  0  0
   11.8942   -3.6057   -2.4401 C   0  0  0  0  0  0  0  0  0  0  0  0
   13.3425   -3.0982   -2.1795 C   0  0  0  0  0  0  0  0  0  0  0  0
   14.4241   -4.2175   -2.2056 C   0  0  0  0  0  0  0  0  0  0  0  0
   15.8618   -3.6722   -1.9731 C   0  0  0  0  0  0  0  0  0  0  0  0
   16.9590   -4.7741   -1.9888 C   0  0  0  0  0  0  0  0  0  0  0  0
   18.3850   -4.2007   -1.7494 C   0  0  0  0  0  0  0  0  0  0  0  0
   19.4989   -5.2845   -1.7520 C   0  0  0  0  0  0  0  0  0  0  0  0
   20.9076   -4.6929   -1.5058 C   0  0  0  0  0  0  0  0  0  0  0  0
  1  2  2  0  0  0  0 
  3  2  1  0  0  0  0 
  4  2  1  0  0  0  0 
  3  5  1  0  0  0  0 
  6  4  1  0  0  0  0 
  5  7  2  0  0  0  0 
  6  8  1  0  0  0  0 
  6  9  1  0  0  0  0 
  7 10  1  0  0  0  0 
 11  8  1  0  0  0  0 
 12  9  1  0  0  0  0 
 13 10  1  0  0  0  0 
 10 14  2  0  0  0  0 
 15 11  1  0  0  0  0 
 15 12  1  0  0  0  0 
 13 16  1  0  0  0  0 
 14 17  1  0  0  0  0 
 15 18  1  0  0  0  0 
 19 16  1  0  0  0  0 
 17 16  2  0  0  0  0 
 18 20  1  0  0  0  0 
 21 19  1  0  0  0  0 
 22 19  2  0  0  0  0 
 20 23  1  0  0  0  0 
 23 24  1  0  0  0  0 
 24 25  1  0  0  0  0 
 25 26  1  0  0  0  0 
 26 27  1  0  0  0  0 
 27 28  1  0  0  0  0 
 28 29  1  0  0  0  0 
 29 30  1  0  0  0  0 
 30 31  1  0  0  0  0 
 31 32  1  0  0  0  0 
M  CHG  1  19   1
M  CHG  1  21  -1
M  END
> <Name>
1-Piperazineacetic acid, 4-dodecyl-, (5-nitrofurfurylidene)hydrazide

> <Source>
Chemidplus3DMolFile

> <Tox>
2.539

> <CAS>
24632-53-9

$$$$

  CDK

 23 24  0  0  0  0  0  0  0  0999 V2000
   -0.5509   -2.7376    0.0000 N   0  0  0  0  0  0  0  0  0  0  0  0
   -0.5509   -3.5626    0.0000 C   0  0  0  0  0  0  0  0  0  0  0  0
    0.1636   -2.3251    0.0000 C   0  0  0  0  0  0  0  0  0  0  0  0
   -1.2654   -2.3251    0.0000 C   0  0  0  0  0  0  0  0  0  0  0  0
   -1.2654   -3.9751    0.0000 O   0  0  0  0  0  0  0  0  0  0  0  0
    0.1636   -3.9751    0.0000 C   0  0  0  0  0  0  0  0  0  0  0  0
    0.1636   -1.5001    0.0000 C   0  0  0  0  0  0  0  0  0  0  0  0
   -1.2654   -1.5001    0.0000 C   0  0  0  0  0  0  0  0  0  0  0  0
   -0.5509   -1.0876    0.0000 N   0  0  0  0  0  0  0  0  0  0  0  0
   -0.5509   -0.2626    0.0000 C   0  0  0  0  0  0  0  0  0  0  0  0
   -0.5509    0.5624    0.0000 C   0  0  0  0  0  0  0  0  0  0  0  0
   -1.2654    0.9749    0.0000 O   0  0  0  0  0  0  0  0  0  0  0  0
    0.1636    0.9749    0.0000 N   0  0  0  0  0  0  0  0  0  0  0  0
    0.1636    1.7999    0.0000 N   0  0  0  0  0  0  0  0  0  0  0  0
    0.8781    2.2124    0.0000 C   0  0  0  0  0  0  0  0  0  0  0  0
    0.8781    3.0374    0.0000 C   0  0  0  0  0  0  0  0  0  0  0  0
    1.5455    3.5223    0.0000 C   0  0  0  0  0  0  0  0  0  0  0  0
    0.2106    3.5223    0.0000 O   0  0  0  0  0  0  0  0  0  0  0  0
    1.2906    4.3069    0.0000 C   0  0  0  0  0  0  0  0  0  0  0  0
    0.4656    4.3069    0.0000 C   0  0  0  0  0  0  0  0  0  0  0  0
   -0.0194    4.9744    0.0000 N   0  0  0  0  0  0  0  0  0  0  0  0
   -0.8398    4.8881    0.0000 O   0  0  0  0  0  0  0  0  0  0  0  0
    0.3162    5.7281    0.0000 O   0  0  0  0  0  0  0  0  0  0  0  0
  1  2  1  0  0  0  0 
  1  3  1  0  0  0  0 
  1  4  1  0  0  0  0 
  2  5  2  0  0  0  0 
  2  6  1  0  0  0  0 
  3  7  1  0  0  0  0 
  8  4  1  0  0  0  0 
  7  9  1  0  0  0  0 
  9  8  1  0  0  0  0 
  9 10  1  0  0  0  0 
 10 11  1  0  0  0  0 
 11 12  2  0  0  0  0 
 11 13  1  0  0  0  0 
 14 13  1  0  0  0  0 
 14 15  2  0  0  0  0 
 15 16  1  0  0  0  0 
 16 17  2  0  0  0  0 
 16 18  1  0  0  0  0 
 17 19  1  0  0  0  0 
 20 18  1  0  0  0  0 
 19 20  2  0  0  0  0 
 20 21  1  0  0  0  0 
 21 22  2  0  0  0  0 
 21 23  2  0  0  0  0 
M  END
> <Name>
1-Piperazineacetic acid, 4-acetyl-, 2-(5-nitrofurfurylidene)hydrazide

> <Source>
Smiles

> <Tox>
2.966

> <CAS>
24632-58-4

$$$$

  CDK

 22 23  0  0  0  0  0  0  0  0999 V2000
   -0.4677   -3.3349    0.0000 N   0  0  0  0  0  0  0  0  0  0  0  0
   -0.4677   -4.1599    0.0000 C   0  0  0  0  0  0  0  0  0  0  0  0
    0.2467   -2.9224    0.0000 C   0  0  0  0  0  0  0  0  0  0  0  0
   -1.1822   -2.9224    0.0000 C   0  0  0  0  0  0  0  0  0  0  0  0
    0.2467   -2.0974    0.0000 C   0  0  0  0  0  0  0  0  0  0  0  0
   -1.1822   -2.0974    0.0000 C   0  0  0  0  0  0  0  0  0  0  0  0
   -0.4677   -1.6849    0.0000 N   0  0  0  0  0  0  0  0  0  0  0  0
   -0.4677   -0.8599    0.0000 C   0  0  0  0  0  0  0  0  0  0  0  0
   -0.4677   -0.0349    0.0000 C   0  0  0  0  0  0  0  0  0  0  0  0
   -0.4677    0.7901    0.0000 C   0  0  0  0  0  0  0  0  0  0  0  0
   -1.1822    1.2026    0.0000 O   0  0  0  0  0  0  0  0  0  0  0  0
    0.2467    1.2026    0.0000 N   0  0  0  0  0  0  0  0  0  0  0  0
    0.2467    2.0276    0.0000 N   0  0  0  0  0  0  0  0  0  0  0  0
    0.9612    2.4401    0.0000 C   0  0  0  0  0  0  0  0  0  0  0  0
    0.9612    3.2651    0.0000 C   0  0  0  0  0  0  0  0  0  0  0  0
    1.6286    3.7501    0.0000 C   0  0  0  0  0  0  0  0  0  0  0  0
    0.2938    3.7501    0.0000 O   0  0  0  0  0  0  0  0  0  0  0  0
    1.3737    4.5347    0.0000 C   0  0  0  0  0  0  0  0  0  0  0  0
    0.5487    4.5347    0.0000 C   0  0  0  0  0  0  0  0  0  0  0  0
    0.0638    5.2021    0.0000 N   0  0  0  0  0  0  0  0  0  0  0  0
   -0.7567    5.1159    0.0000 O   0  0  0  0  0  0  0  0  0  0  0  0
    0.3993    5.9558    0.0000 O   0  0  0  0  0  0  0  0  0  0  0  0
  1  2  1  0  0  0  0 
  1  3  1  0  0  0  0 
  1  4  1  0  0  0  0 
  3  5  1  0  0  0  0 
  6  4  1  0  0  0  0 
  5  7  1  0  0  0  0 
  7  6  1  0  0  0  0 
  7  8  1  0  0  0  0 
  8  9  1  0  0  0  0 
  9 10  1  0  0  0  0 
 10 11  2  0  0  0  0 
 10 12  1  0  0  0  0 
 13 12  1  0  0  0  0 
 13 14  2  0  0  0  0 
 14 15  1  0  0  0  0 
 15 16  2  0  0  0  0 
 15 17  1  0  0  0  0 
 16 18  1  0  0  0  0 
 19 17  1  0  0  0  0 
 18 19  2  0  0  0  0 
 19 20  1  0  0  0  0 
 20 21  2  0  0  0  0 
 20 22  2  0  0  0  0 
M  END
> <Name>
1-Piperazinepropionic acid, 4-methyl-, 2-(5-nitrofurfurylidene)hydrazide

> <Source>
Smiles

> <Tox>
3.013

> <CAS>
24632-63-1

$$$$

  CDK

 16 17  0  0  0  0  0  0  0  0999 V2000
    3.0039    0.9012    0.0000 N   0  0  0  0  0  0  0  0  0  0  0  0
    3.5046    1.7523    0.0000 C   0  0  0  0  0  0  0  0  0  0  0  0
    2.0026    0.9012    0.0000 C   0  0  0  0  0  0  0  0  0  0  0  0
    3.0039    2.6034    0.0000 O   0  0  0  0  0  0  0  0  0  0  0  0
    4.5059    1.7523    0.0000 C   0  0  0  0  0  0  0  0  0  0  0  0
    1.5020    1.7523    0.0000 C   0  0  0  0  0  0  0  0  0  0  0  0
    1.5020    0.0000    0.0000 C   0  0  0  0  0  0  0  0  0  0  0  0
    5.0065    2.6034    0.0000 C   0  0  0  0  0  0  0  0  0  0  0  0
    5.0065    0.9012    0.0000 C   0  0  0  0  0  0  0  0  0  0  0  0
    0.5007    1.7523    0.0000 C   0  0  0  0  0  0  0  0  0  0  0  0
    0.5007    0.0000    0.0000 C   0  0  0  0  0  0  0  0  0  0  0  0
    4.5059    3.5046    0.0000 C   0  0  0  0  0  0  0  0  0  0  0  0
    6.0078    2.6034    0.0000 O   0  0  0  0  0  0  0  0  0  0  0  0
    6.0078    0.9012    0.0000 C   0  0  0  0  0  0  0  0  0  0  0  0
    0.0000    0.9012    0.0000 C   0  0  0  0  0  0  0  0  0  0  0  0
    6.5085    1.7523    0.0000 C   0  0  0  0  0  0  0  0  0  0  0  0
  1  2  1  0  0  0  0 
  1  3  1  0  0  0  0 
  2  4  2  0  0  0  0 
  2  5  1  0  0  0  0 
  3  6  2  0  0  0  0 
  7  3  1  0  0  0  0 
  8  5  2  0  0  0  0 
  5  9  1  0  0  0  0 
  6 10  1  0  0  0  0 
 11  7  2  0  0  0  0 
  8 12  1  0  0  0  0 
 13  8  1  0  0  0  0 
  9 14  1  0  0  0  0 
 10 15  2  0  0  0  0 
 15 11  1  0  0  0  0 
 16 13  1  0  0  0  0 
 14 16  1  0  0  0  0 
M  END
> <Name>
4H-Pyran, 5,6-dihydro-2-methyl-3-(phenylcarbamoyl)-

> <Source>
NIST2DMolFile

> <Tox>
1.161

> <CAS>
24691-76-7

$$$$

  CDK

 31 32  0  0  0  0  0  0  0  0999 V2000
    0.0000    0.0000    0.0000 C   0  0  0  0  0  0  0  0  0  0  0  0
    1.0200    1.5000    0.1000 S   0  0  0  0  0  0  0  0  0  0  0  0
    1.3000    1.7600   -1.6800 C   0  0  0  0  0  0  0  0  0  0  0  0
    1.8600    3.1600   -1.9800 C   0  0  0  0  0  0  0  0  0  0  0  0
    0.1000    1.5400   -2.4000 O   0  0  0  0  0  0  0  0  0  0  0  0
    0.8400    4.2800   -1.8000 C   0  0  0  0  0  0  0  0  0  0  0  0
    3.0200    3.4000   -1.1800 O   0  0  0  0  0  0  0  0  0  0  0  0
   -0.9400    2.4600   -2.1400 C   0  0  0  0  0  0  0  0  0  0  0  0
   -0.5000    3.9200   -2.4800 C   0  0  0  0  0  0  0  0  0  0  0  0
    0.5800    4.4800   -0.4200 O   0  0  0  0  0  0  0  0  0  0  0  0
    4.0800    4.3200   -1.8400 P   0  0  0  0  0  0  0  0  0  0  0  0
   -2.1800    2.0000   -2.9200 C   0  0  0  0  0  0  0  0  0  0  0  0
   -0.3400    4.0400   -3.8800 O   0  0  0  0  0  0  0  0  0  0  0  0
    4.9200    3.5400   -2.7400 O   0  0  0  0  0  0  0  0  0  0  0  0
    3.3800    5.4600   -2.6400 O   0  0  0  0  0  0  0  0  0  0  0  0
    4.9800    4.9400   -0.7200 O   0  0  0  0  0  0  0  0  0  0  0  0
   -2.3200    0.4800   -2.9800 C   0  0  0  0  0  0  0  0  0  0  0  0
   -3.4000    2.6200   -2.3800 N   0  0  0  0  0  0  0  0  0  0  0  0
   -1.3400   -0.1400   -4.3400 Cl  0  0  0  0  0  0  0  0  0  0  0  0
   -3.7600    0.0200   -3.1200 C   0  0  0  0  0  0  0  0  0  0  0  0
   -3.8000    3.8400   -2.8400 C   0  0  0  0  0  0  0  0  0  0  0  0
   -3.1600    4.4200   -3.6800 O   0  0  0  0  0  0  0  0  0  0  0  0
   -5.0600    4.4600   -2.2600 C   0  0  0  0  0  0  0  0  0  0  0  0
   -4.8400    5.3200   -1.1000 N   0  0  0  0  0  0  0  0  0  0  0  0
   -5.8000    5.3400   -3.2800 C   0  0  0  0  0  0  0  0  0  0  0  0
   -5.4000    6.6200   -1.4000 C   0  0  0  0  0  0  0  0  0  0  0  0
   -3.5000    5.3600   -0.5200 C   0  0  0  0  0  0  0  0  0  0  0  0
   -6.5000    6.3800   -2.4200 C   0  0  0  0  0  0  0  0  0  0  0  0
   -7.7600    5.8200   -1.7800 C   0  0  0  0  0  0  0  0  0  0  0  0
   -8.8800    5.8000   -2.8200 C   0  0  0  0  0  0  0  0  0  0  0  0
  -10.2000    5.2800   -2.2400 C   0  0  0  0  0  0  0  0  0  0  0  0
  1  2  1  0  0  0  0 
  2  3  1  0  0  0  0 
  3  4  1  0  0  0  0 
  3  5  1  0  0  0  0 
  4  6  1  0  0  0  0 
  4  7  1  0  0  0  0 
  8  5  1  0  0  0  0 
  6  9  1  0  0  0  0 
  6 10  1  0  0  0  0 
  7 11  1  0  0  0  0 
  9  8  1  0  0  0  0 
  8 12  1  0  0  0  0 
  9 13  1  0  0  0  0 
 11 14  2  0  0  0  0 
 11 15  1  0  0  0  0 
 11 16  1  0  0  0  0 
 12 17  1  0  0  0  0 
 12 18  1  0  0  0  0 
 19 17  1  0  0  0  0 
 17 20  1  0  0  0  0 
 18 21  1  0  0  0  0 
 21 22  2  0  0  0  0 
 21 23  1  0  0  0  0 
 23 24  1  0  0  0  0 
 23 25  1  0  0  0  0 
 24 26  1  0  0  0  0 
 24 27  1  0  0  0  0 
 28 25  1  0  0  0  0 
 26 28  1  0  0  0  0 
 28 29  1  0  0  0  0 
 29 30  1  0  0  0  0 
 30 31  1  0  0  0  0 
M  END
> <Name>
L-threo-alpha-D-galacto-Octapyranoside, methyl 7-chloro-6,7,8-trideoxy-6-(((1-methyl-4-propyl-2-pyrrolidinyl)carbonyl)amino)-1-thio-, 2-(dihydrogen phosphate), (2S-trans)-

> <Source>
NIH3DMolFile

> <Tox>
2.440

> <CAS>
24729-96-2

$$$$

  CDK

 17 16  0  0  0  0  0  0  0  0999 V2000
   -3.6206   -2.3127    6.0302 Cl  0  0  0  0  0  0  0  0  0  0  0  0
   -2.1364   -1.4333    6.4807 C   0  0  0  0  0  0  0  0  0  0  0  0
   -2.1357    0.0154    5.9981 C   0  0  0  0  0  0  0  0  0  0  0  0
   -3.2041    0.7072    6.6453 O   0  0  0  0  0  0  0  0  0  0  0  0
   -2.2708    0.1660    4.4857 C   0  0  0  0  0  0  0  0  0  0  0  0
   -1.1993   -0.5290    3.8614 O   0  0  0  0  0  0  0  0  0  0  0  0
   -1.2526   -0.4094    2.4472 C   0  0  0  0  0  0  0  0  0  0  0  0
   -0.0898   -1.1663    1.8171 C   0  0  0  0  0  0  0  0  0  0  0  0
   -0.0860   -1.0545    0.2897 C   0  0  0  0  0  0  0  0  0  0  0  0
    1.0678   -1.8475   -0.3214 C   0  0  0  0  0  0  0  0  0  0  0  0
    1.1052   -1.7077   -1.8366 C   0  0  0  0  0  0  0  0  0  0  0  0
    2.2049   -2.4536   -2.3396 O   0  0  0  0  0  0  0  0  0  0  0  0
    2.2939   -2.3623   -3.7553 C   0  0  0  0  0  0  0  0  0  0  0  0
    3.4766   -3.2037   -4.2259 C   0  0  0  0  0  0  0  0  0  0  0  0
    3.5841   -3.1255   -5.6475 O   0  0  0  0  0  0  0  0  0  0  0  0
    4.8146   -2.7900   -3.6173 C   0  0  0  0  0  0  0  0  0  0  0  0
    5.2437   -1.0966   -3.9740 Cl  0  0  0  0  0  0  0  0  0  0  0  0
  1  2  1  0  0  0  0 
  3  2  1  0  0  0  0 
  4  3  1  0  0  0  0 
  5  3  1  0  0  0  0 
  6  5  1  0  0  0  0 
  6  7  1  0  0  0  0 
  8  7  1  0  0  0  0 
  9  8  1  0  0  0  0 
  9 10  1  0  0  0  0 
 10 11  1  0  0  0  0 
 12 11  1  0  0  0  0 
 12 13  1  0  0  0  0 
 13 14  1  0  0  0  0 
 15 14  1  0  0  0  0 
 14 16  1  0  0  0  0 
 17 16  1  0  0  0  0 
M  END
> <Name>
2-Propanol, 1,1'-(pentamethylenedioxy)bis(3-chloro-

> <Source>
Chemidplus3DMolFile

> <Tox>
2.109

> <CAS>
24771-52-6

$$$$

  CDK

 13 13  0  0  0  0  0  0  0  0999 V2000
    1.1027   -1.3124    0.0000 C   0  0  0  0  0  0  0  0  0  0  0  0
    1.1027   -0.0000    0.0000 O   0  0  0  0  0  0  0  0  0  0  0  0
    2.2833   -2.0076    0.0000 C   0  0  0  0  0  0  0  0  0  0  0  0
    0.0000   -2.0076    0.0000 C   0  0  0  0  0  0  0  0  0  0  0  0
    2.2833   -3.3200    0.0000 C   0  0  0  0  0  0  0  0  0  0  0  0
    3.4519   -1.3424    0.0000 C   0  0  0  0  0  0  0  0  0  0  0  0
    0.0000   -3.3200    0.0000 C   0  0  0  0  0  0  0  0  0  0  0  0
    1.1027   -3.9852    0.0000 C   0  0  0  0  0  0  0  0  0  0  0  0
    3.4519   -0.0000    0.0000 C   0  0  0  0  0  0  0  0  0  0  0  0
    4.5845   -2.0076    0.0000 C   0  0  0  0  0  0  0  0  0  0  0  0
    4.5845   -0.6472    0.0000 C   0  0  0  0  0  0  0  0  0  0  0  0
    1.1027   -5.3456    0.0000 O   0  0  0  0  0  0  0  0  0  0  0  0
    2.2833   -5.9928    0.0000 C   0  0  0  0  0  0  0  0  0  0  0  0
  1  2  1  0  0  0  0 
  1  3  2  0  0  0  0 
  1  4  1  0  0  0  0 
  3  5  1  0  0  0  0 
  3  6  1  0  0  0  0 
  4  7  2  0  0  0  0 
  5  8  2  0  0  0  0 
  6  9  1  0  0  0  0 
  6 10  1  0  0  0  0 
  6 11  1  0  0  0  0 
  7  8  1  0  0  0  0 
  8 12  1  0  0  0  0 
 12 13  1  0  0  0  0 
M  END
> <Name>
Phenol, (1,1-dimethylethyl)-4-methoxy-

> <Source>
DSSTox2DMolFile

> <Tox>
1.955

> <CAS>
25013-16-5

$$$$

  CDK

 12 12  0  0  0  0  0  0  0  0999 V2000
    2.9953   -0.2049   -0.0164 C   0  0  0  0  0  0  0  0  0  0  0  0
    1.5796   -0.5782   -0.1487 C   0  0  0  0  0  0  0  0  0  0  0  0
    3.5252    0.7900    0.4528 O   0  0  0  0  0  0  0  0  0  0  0  0
    3.8612   -1.1397   -0.4854 O   0  0  0  0  0  0  0  0  0  0  0  0
    0.5372    0.2547    0.0117 C   0  0  0  0  0  0  0  0  0  0  0  0
    0.6578    1.6966    0.3426 C   0  0  0  0  0  0  0  0  0  0  0  0
   -0.8609   -0.2961   -0.1359 C   0  0  0  0  0  0  0  0  0  0  0  0
   -1.5667   -0.2903    1.2231 C   0  0  0  0  0  0  0  0  0  0  0  0
   -1.6580    0.5121   -1.1623 C   0  0  0  0  0  0  0  0  0  0  0  0
   -2.9914   -0.8045    1.0965 C   0  0  0  0  0  0  0  0  0  0  0  0
   -3.0858    0.0039   -1.2709 C   0  0  0  0  0  0  0  0  0  0  0  0
   -3.7777    0.0112    0.0827 C   0  0  0  0  0  0  0  0  0  0  0  0
  1  2  1  0  0  0  0 
  1  3  2  0  0  0  0 
  1  4  1  0  0  0  0 
  2  5  2  0  0  0  0 
  5  6  1  0  0  0  0 
  5  7  1  0  0  0  0 
  7  8  1  0  0  0  0 
  7  9  1  0  0  0  0 
  8 10  1  0  0  0  0 
 11  9  1  0  0  0  0 
 10 12  1  0  0  0  0 
 12 11  1  0  0  0  0 
M  END
> <Name>
Cyclohexaneacrylic acid, beta-methyl-

> <Source>
DougDB3DMolFile

> <Tox>
1.764

> <CAS>
25229-42-9

$$$$

  CDK

 22 22  0  0  0  0  0  0  0  0999 V2000
    3.4400   -2.6549    0.0000 P   0  0  0  0  0  0  0  0  0  0  0  0
    4.5764   -1.9834    0.0000 O   0  0  0  0  0  0  0  0  0  0  0  0
    4.0805   -3.8016    0.0000 N   0  0  0  0  0  0  0  0  0  0  0  0
    2.7789   -1.4669    0.0000 S   0  0  0  0  0  0  0  0  0  0  0  0
    2.2623   -3.3057    0.0000 O   0  0  0  0  0  0  0  0  0  0  0  0
    5.7437   -2.6549    0.0000 C   0  0  0  0  0  0  0  0  0  0  0  0
    3.3367   -4.8863    0.0000 C   0  0  0  0  0  0  0  0  0  0  0  0
    1.1673   -2.6239    0.0000 C   0  0  0  0  0  0  0  0  0  0  0  0
    6.8904   -1.9938    0.0000 C   0  0  0  0  0  0  0  0  0  0  0  0
    5.7437   -3.9772    0.0000 C   0  0  0  0  0  0  0  0  0  0  0  0
    3.9669   -6.0949    0.0000 C   0  0  0  0  0  0  0  0  0  0  0  0
    2.0041   -4.8863    0.0000 C   0  0  0  0  0  0  0  0  0  0  0  0
    0.0000   -3.2747    0.0000 C   0  0  0  0  0  0  0  0  0  0  0  0
    6.8904   -0.6715    0.0000 C   0  0  0  0  0  0  0  0  0  0  0  0
    8.0474   -2.6549    0.0000 C   0  0  0  0  0  0  0  0  0  0  0  0
    6.8904   -4.6590    0.0000 C   0  0  0  0  0  0  0  0  0  0  0  0
    8.0474   -0.0000    0.0000 O   0  0  0  0  0  0  0  0  0  0  0  0
    5.7437   -0.0000    0.0000 O   0  0  0  0  0  0  0  0  0  0  0  0
    8.0474   -3.9772    0.0000 C   0  0  0  0  0  0  0  0  0  0  0  0
    9.1837   -0.6715    0.0000 C   0  0  0  0  0  0  0  0  0  0  0  0
    9.1837   -1.9938    0.0000 C   0  0  0  0  0  0  0  0  0  0  0  0
   10.3304   -0.0000    0.0000 C   0  0  0  0  0  0  0  0  0  0  0  0
  1  2  1  0  0  0  0 
  1  3  1  0  0  0  0 
  1  4  2  0  0  0  0 
  1  5  1  0  0  0  0 
  6  2  1  0  0  0  0 
  3  7  1  0  0  0  0 
  5  8  1  0  0  0  0 
  9  6  1  0  0  0  0 
  6 10  2  0  0  0  0 
  7 11  1  0  0  0  0 
  7 12  1  0  0  0  0 
  8 13  1  0  0  0  0 
 14  9  1  0  0  0  0 
  9 15  2  0  0  0  0 
 10 16  1  0  0  0  0 
 14 17  1  0  0  0  0 
 14 18  2  0  0  0  0 
 15 19  1  0  0  0  0 
 19 16  2  0  0  0  0 
 17 20  1  0  0  0  0 
 20 21  1  0  0  0  0 
 20 22  1  0  0  0  0 
M  END
> <Name>
Benzoic acid, 2-((ethoxy((1-methylethyl)amino)phosphinothioyl)oxy)-, 1-methylethyl ester

> <Source>
DSSTox2DMolFile

> <Tox>
4.214

> <CAS>
25311-71-1

$$$$

  CDK

 15 15  0  0  0  0  0  0  0  0999 V2000
    1.7714   -1.2925    0.0000 C   0  0  0  0  0  0  0  0  0  0  0  0
    2.4859   -0.8800    0.0000 C   0  0  0  0  0  0  0  0  0  0  0  0
    1.0570   -0.8800    0.0000 C   0  0  0  0  0  0  0  0  0  0  0  0
    2.4859   -0.0550    0.0000 C   0  0  0  0  0  0  0  0  0  0  0  0
    1.0570   -0.0550    0.0000 C   0  0  0  0  0  0  0  0  0  0  0  0
    0.3425   -1.2925    0.0000 O   0  0  0  0  0  0  0  0  0  0  0  0
    3.2004    0.3575    0.0000 Cl  0  0  0  0  0  0  0  0  0  0  0  0
    1.7714    0.3575    0.0000 C   0  0  0  0  0  0  0  0  0  0  0  0
    0.3425    0.3575    0.0000 C   0  0  0  0  0  0  0  0  0  0  0  0
   -0.3720   -0.8800    0.0000 C   0  0  0  0  0  0  0  0  0  0  0  0
   -1.0864   -0.4675    0.0000 C   0  0  0  0  0  0  0  0  0  0  0  0
   -1.8009   -0.8800    0.0000 O   0  0  0  0  0  0  0  0  0  0  0  0
   -1.0864    0.3575    0.0000 S   0  0  0  0  0  0  0  0  0  0  0  0
   -1.8009    0.7700    0.0000 C   0  0  0  0  0  0  0  0  0  0  0  0
   -2.5154    1.1825    0.0000 C   0  0  0  0  0  0  0  0  0  0  0  0
  1  2  1  0  0  0  0 
  1  3  2  0  0  0  0 
  2  4  2  0  0  0  0 
  5  3  1  0  0  0  0 
  3  6  1  0  0  0  0 
  4  7  1  0  0  0  0 
  4  8  1  0  0  0  0 
  8  5  2  0  0  0  0 
  5  9  1  0  0  0  0 
  6 10  1  0  0  0  0 
 10 11  1  0  0  0  0 
 11 12  2  0  0  0  0 
 11 13  1  0  0  0  0 
 13 14  1  0  0  0  0 
 14 15  1  0  0  0  0 
M  END
> <Name>
Ethanethioic acid, (4-chloro-2-methylphenoxy)-, S-ethyl ester (9CI)

> <Source>
Smiles

> <Tox>
2.491

> <CAS>
25319-90-8

$$$$

  CDK

 16 18  0  0  0  0  0  0  0  0999 V2000
    3.1708   -2.4429    2.8462 S   0  0  0  0  0  0  0  0  0  0  0  0
    1.8006   -2.0972    1.9508 N   0  0  0  0  0  0  0  0  0  0  0  0
    3.5715   -3.9979    2.1118 C   0  0  0  0  0  0  0  0  0  0  0  0
    1.9450   -1.9883    0.4878 C   0  0  0  0  0  0  0  0  0  0  0  0
    0.8970   -1.0512    2.4627 C   0  0  0  0  0  0  0  0  0  0  0  0
    4.8610   -4.3780    2.0535 N   0  0  0  0  0  0  0  0  0  0  0  0
    2.7318   -4.8355    1.6090 N   0  0  0  0  0  0  0  0  0  0  0  0
    0.6001   -2.0554   -0.2363 C   0  0  0  0  0  0  0  0  0  0  0  0
   -0.4777   -1.0916    1.7947 C   0  0  0  0  0  0  0  0  0  0  0  0
    4.8703   -5.6056    1.4424 C   0  0  0  0  0  0  0  0  0  0  0  0
    3.5297   -5.8691    1.1749 C   0  0  0  0  0  0  0  0  0  0  0  0
   -0.3625   -0.9964    0.2805 C   0  0  0  0  0  0  0  0  0  0  0  0
    5.9046   -6.4814    1.1107 C   0  0  0  0  0  0  0  0  0  0  0  0
    3.1820   -7.0731    0.5394 C   0  0  0  0  0  0  0  0  0  0  0  0
    5.5405   -7.6748    0.4786 C   0  0  0  0  0  0  0  0  0  0  0  0
    4.2040   -7.9674    0.1972 C   0  0  0  0  0  0  0  0  0  0  0  0
  1  2  1  0  0  0  0 
  1  3  1  0  0  0  0 
  2  4  1  0  0  0  0 
  2  5  1  0  0  0  0 
  6  3  1  0  0  0  0 
  7  3  2  0  0  0  0 
  8  4  1  0  0  0  0 
  9  5  1  0  0  0  0 
  6 10  1  0  0  0  0 
  7 11  1  0  0  0  0 
 12  8  1  0  0  0  0 
 12  9  1  0  0  0  0 
 10 11  1  0  0  0  0 
 10 13  2  0  0  0  0 
 11 14  2  0  0  0  0 
 13 15  1  0  0  0  0 
 14 16  1  0  0  0  0 
 15 16  2  0  0  0  0 
M  END
> <Name>
Piperidine, 1-(1H-benzimidazol-2-ylthio)-

> <Source>
Chemidplus3DMolFile

> <Tox>
2.437

> <CAS>
25369-84-0

$$$$

  CDK

 40 43  0  0  0  0  0  0  0  0999 V2000
   -0.9898   -4.3287    0.7925 O   0  0  0  0  0  0  0  0  0  0  0  0
   -0.0818   -3.3696    0.4326 C   0  0  0  0  0  0  0  0  0  0  0  0
   -0.5272   -2.0481    0.3924 C   0  0  0  0  0  0  0  0  0  0  0  0
    1.2479   -3.6877    0.1116 C   0  0  0  0  0  0  0  0  0  0  0  0
   -1.9075   -1.7360    0.7257 C   0  0  0  0  0  0  0  0  0  0  0  0
    0.3482   -1.0282    0.0314 C   0  0  0  0  0  0  0  0  0  0  0  0
    2.1383   -2.6504   -0.2548 C   0  0  0  0  0  0  0  0  0  0  0  0
    1.7133   -5.0124    0.1462 C   0  0  0  0  0  0  0  0  0  0  0  0
   -2.8785   -1.7289   -0.2711 C   0  0  0  0  0  0  0  0  0  0  0  0
   -2.2571   -1.4420    2.0439 C   0  0  0  0  0  0  0  0  0  0  0  0
    1.6728   -1.3258   -0.2902 C   0  0  0  0  0  0  0  0  0  0  0  0
   -0.1314    0.3929   -0.0124 C   0  0  0  0  0  0  0  0  0  0  0  0
    3.4681   -2.9684   -0.5755 C   0  0  0  0  0  0  0  0  0  0  0  0
    3.0378   -5.3100   -0.1754 C   0  0  0  0  0  0  0  0  0  0  0  0
    0.8751   -6.1562    0.5088 C   0  0  0  0  0  0  0  0  0  0  0  0
   -4.2034   -1.4282    0.0465 C   0  0  0  0  0  0  0  0  0  0  0  0
   -2.5019   -2.0445   -1.6889 C   0  0  0  0  0  0  0  0  0  0  0  0
   -1.2578   -1.4626    2.9792 O   0  0  0  0  0  0  0  0  0  0  0  0
   -3.5856   -1.1367    2.3818 C   0  0  0  0  0  0  0  0  0  0  0  0
    2.5044   -0.2329   -0.6467 N   0  0  0  0  0  0  0  0  0  0  0  0
    4.4973   -1.9529   -0.9789 C   0  0  0  0  0  0  0  0  0  0  0  0
    3.9134   -4.2899   -0.5357 C   0  0  0  0  0  0  0  0  0  0  0  0
    3.4917   -6.5975   -0.1410 O   0  0  0  0  0  0  0  0  0  0  0  0
    0.2281   -6.7946   -0.3185 O   0  0  0  0  0  0  0  0  0  0  0  0
   -5.1356   -1.4425   -1.0231 N   0  0  0  0  0  0  0  0  0  0  0  0
   -4.5733   -1.1301    1.3682 C   0  0  0  0  0  0  0  0  0  0  0  0
   -3.9554   -0.8377    3.7033 C   0  0  0  0  0  0  0  0  0  0  0  0
    5.6712   -1.8931    0.0111 C   0  0  0  0  0  0  0  0  0  0  0  0
    5.0175   -2.1906   -2.4053 C   0  0  0  0  0  0  0  0  0  0  0  0
    5.2068   -4.5962   -0.8463 O   0  0  0  0  0  0  0  0  0  0  0  0
   -5.9018   -0.8251    1.7060 C   0  0  0  0  0  0  0  0  0  0  0  0
   -5.2802   -0.5371    4.0209 C   0  0  0  0  0  0  0  0  0  0  0  0
   -3.0128   -0.8149    4.8228 C   0  0  0  0  0  0  0  0  0  0  0  0
   -7.0293   -0.7865    0.7158 C   0  0  0  0  0  0  0  0  0  0  0  0
   -6.2515   -0.5307    3.0241 C   0  0  0  0  0  0  0  0  0  0  0  0
   -5.6411   -0.2474    5.3058 O   0  0  0  0  0  0  0  0  0  0  0  0
   -2.4006    0.1976    5.1555 O   0  0  0  0  0  0  0  0  0  0  0  0
   -6.8175    0.2887   -0.3616 C   0  0  0  0  0  0  0  0  0  0  0  0
   -7.2710   -2.1550    0.0598 C   0  0  0  0  0  0  0  0  0  0  0  0
   -7.5438   -0.2361    3.3502 O   0  0  0  0  0  0  0  0  0  0  0  0
  1  2  1  0  0  0  0 
  3  2  1  0  0  0  0 
  4  2  2  0  0  0  0 
  3  5  1  0  0  0  0 
  3  6  2  0  0  0  0 
  7  4  1  0  0  0  0 
  4  8  1  0  0  0  0 
  5  9  2  0  0  0  0 
  5 10  1  0  0  0  0 
  6 11  1  0  0  0  0 
  6 12  1  0  0  0  0 
  7 13  1  0  0  0  0 
  7 11  2  0  0  0  0 
  8 14  2  0  0  0  0 
  8 15  1  0  0  0  0 
  9 16  1  0  0  0  0 
  9 17  1  0  0  0  0 
 18 10  1  0  0  0  0 
 19 10  2  0  0  0  0 
 20 11  1  0  0  0  0 
 13 21  1  0  0  0  0 
 13 22  2  0  0  0  0 
 23 14  1  0  0  0  0 
 22 14  1  0  0  0  0 
 24 15  2  0  0  0  0 
 25 16  1  0  0  0  0 
 26 16  2  0  0  0  0 
 26 19  1  0  0  0  0 
 19 27  1  0  0  0  0 
 21 28  1  0  0  0  0 
 21 29  1  0  0  0  0 
 30 22  1  0  0  0  0 
 26 31  1  0  0  0  0 
 27 32  2  0  0  0  0 
 27 33  1  0  0  0  0 
 31 34  1  0  0  0  0 
 31 35  2  0  0  0  0 
 36 32  1  0  0  0  0 
 35 32  1  0  0  0  0 
 37 33  2  0  0  0  0 
 34 38  1  0  0  0  0 
 34 39  1  0  0  0  0 
 40 35  1  0  0  0  0 
M  END
> <Name>
(2,2'-Binaphthalene)-8,8'-dicarboxaldehyde, diamino-1,1',6,6',7,7'-hexahydroxy-3,3'-dimethyl-5,5'-bis(1-methylethyl)-

> <Source>
Chemidplus3DMolFile

> <Tox>
2.225

> <CAS>
25497-49-8

$$$$

  CDK

 13 14  0  0  0  0  0  0  0  0999 V2000
   -1.6758   -3.9043   -1.4352 O   0  0  0  0  0  0  0  0  0  0  0  0
   -2.4309   -4.3479   -0.3451 N   0  0  0  0  0  0  0  0  0  0  0  0
   -0.8942   -2.8551   -1.0487 C   0  0  0  0  0  0  0  0  0  0  0  0
   -2.0713   -3.5447    0.6581 C   0  0  0  0  0  0  0  0  0  0  0  0
   -1.1213   -2.6018    0.2729 C   0  0  0  0  0  0  0  0  0  0  0  0
   -0.0344   -2.2712   -2.0855 C   0  0  0  0  0  0  0  0  0  0  0  0
   -2.5668   -3.5905    2.0077 C   0  0  0  0  0  0  0  0  0  0  0  0
   -0.6099   -1.6502    1.2069 C   0  0  0  0  0  0  0  0  0  0  0  0
   -3.4029   -4.4163    2.3620 O   0  0  0  0  0  0  0  0  0  0  0  0
   -1.9940   -2.6087    2.8406 N   0  0  0  0  0  0  0  0  0  0  0  0
   -1.0442   -1.6726    2.4336 N   0  0  0  0  0  0  0  0  0  0  0  0
    0.4138   -0.6288    0.8018 C   0  0  0  0  0  0  0  0  0  0  0  0
   -2.3734   -2.5019    4.2394 C   0  0  0  0  0  0  0  0  0  0  0  0
  1  2  1  0  0  0  0 
  1  3  1  0  0  0  0 
  2  4  2  0  0  0  0 
  5  3  2  0  0  0  0 
  3  6  1  0  0  0  0 
  5  4  1  0  0  0  0 
  4  7  1  0  0  0  0 
  5  8  1  0  0  0  0 
  9  7  2  0  0  0  0 
 10  7  1  0  0  0  0 
 11  8  2  0  0  0  0 
  8 12  1  0  0  0  0 
 10 11  1  0  0  0  0 
 10 13  1  0  0  0  0 
M  END
> <Name>
Isoxazolo(3,4-d)pyridazin-7(6H)-one, 3,4,6-trimethyl-

> <Source>
Chemidplus3DMolFile

> <Tox>
2.253

> <CAS>
25505-97-9

$$$$

  CDK

 17 19  0  0  0  0  0  0  0  0999 V2000
   -4.3143   -4.7636   -0.1405 O   0  0  0  0  0  0  0  0  0  0  0  0
   -3.0069   -4.6561    0.3360 N   0  0  0  0  0  0  0  0  0  0  0  0
   -4.6248   -3.6519   -0.8658 C   0  0  0  0  0  0  0  0  0  0  0  0
   -2.5805   -3.4783   -0.1237 C   0  0  0  0  0  0  0  0  0  0  0  0
   -3.5531   -2.8035   -0.8646 C   0  0  0  0  0  0  0  0  0  0  0  0
   -1.2695   -2.9205    0.0735 C   0  0  0  0  0  0  0  0  0  0  0  0
   -3.2668   -1.5254   -1.4459 C   0  0  0  0  0  0  0  0  0  0  0  0
   -0.4112   -3.5030    0.7299 O   0  0  0  0  0  0  0  0  0  0  0  0
   -1.0969   -1.6768   -0.5615 N   0  0  0  0  0  0  0  0  0  0  0  0
   -2.0776   -1.0158   -1.2948 N   0  0  0  0  0  0  0  0  0  0  0  0
   -4.2871   -0.7927   -2.2212 C   0  0  0  0  0  0  0  0  0  0  0  0
    0.1686   -0.9664   -0.4843 C   0  0  0  0  0  0  0  0  0  0  0  0
   -5.1463    0.0977   -1.5772 C   0  0  0  0  0  0  0  0  0  0  0  0
   -4.3918   -0.9904   -3.5981 C   0  0  0  0  0  0  0  0  0  0  0  0
   -6.1102    0.7902   -2.3101 C   0  0  0  0  0  0  0  0  0  0  0  0
   -5.3555   -0.2976   -4.3310 C   0  0  0  0  0  0  0  0  0  0  0  0
   -6.2147    0.5927   -3.6870 C   0  0  0  0  0  0  0  0  0  0  0  0
  1  2  1  0  0  0  0 
  1  3  1  0  0  0  0 
  2  4  2  0  0  0  0 
  5  3  2  0  0  0  0 
  5  4  1  0  0  0  0 
  4  6  1  0  0  0  0 
  5  7  1  0  0  0  0 
  8  6  2  0  0  0  0 
  9  6  1  0  0  0  0 
 10  7  2  0  0  0  0 
  7 11  1  0  0  0  0 
  9 10  1  0  0  0  0 
  9 12  1  0  0  0  0 
 11 13  2  0  0  0  0 
 11 14  1  0  0  0  0 
 13 15  1  0  0  0  0 
 14 16  2  0  0  0  0 
 15 17  2  0  0  0  0 
 16 17  1  0  0  0  0 
M  END
> <Name>
Isoxazolo(3,4-d)pyridazin-7(6H)-one, 6-methyl-4-phenyl-

> <Source>
Chemidplus3DMolFile

> <Tox>
2.356

> <CAS>
25505-98-0

$$$$

  CDK

 16 18  0  0  0  0  0  0  0  0999 V2000
    5.3808   -0.7262   -0.2653 O   0  0  0  0  0  0  0  0  0  0  0  0
    4.2362   -1.5131   -0.4105 N   0  0  0  0  0  0  0  0  0  0  0  0
    5.0174    0.5505    0.0473 C   0  0  0  0  0  0  0  0  0  0  0  0
    3.2257   -0.6743   -0.1782 C   0  0  0  0  0  0  0  0  0  0  0  0
    3.6546    0.6213    0.1278 C   0  0  0  0  0  0  0  0  0  0  0  0
    1.8265   -0.9937   -0.2364 C   0  0  0  0  0  0  0  0  0  0  0  0
    2.7003    1.6609    0.3960 C   0  0  0  0  0  0  0  0  0  0  0  0
    1.4048   -2.1168   -0.4927 O   0  0  0  0  0  0  0  0  0  0  0  0
    1.0096    0.1048    0.0211 N   0  0  0  0  0  0  0  0  0  0  0  0
    1.4279    1.3841    0.3244 N   0  0  0  0  0  0  0  0  0  0  0  0
    3.1381    3.0298    0.7327 C   0  0  0  0  0  0  0  0  0  0  0  0
    3.3336    3.9687   -0.2802 C   0  0  0  0  0  0  0  0  0  0  0  0
    3.3562    3.3847    2.0640 C   0  0  0  0  0  0  0  0  0  0  0  0
    3.7470    5.2623    0.0382 C   0  0  0  0  0  0  0  0  0  0  0  0
    3.7694    4.6783    2.3825 C   0  0  0  0  0  0  0  0  0  0  0  0
    3.9648    5.6172    1.3696 C   0  0  0  0  0  0  0  0  0  0  0  0
  1  2  1  0  0  0  0 
  1  3  1  0  0  0  0 
  2  4  2  0  0  0  0 
  5  3  2  0  0  0  0 
  5  4  1  0  0  0  0 
  4  6  1  0  0  0  0 
  5  7  1  0  0  0  0 
  8  6  2  0  0  0  0 
  9  6  1  0  0  0  0 
 10  7  2  0  0  0  0 
  7 11  1  0  0  0  0 
 10  9  1  0  0  0  0 
 11 12  2  0  0  0  0 
 11 13  1  0  0  0  0 
 12 14  1  0  0  0  0 
 13 15  2  0  0  0  0 
 14 16  2  0  0  0  0 
 15 16  1  0  0  0  0 
M  END
> <Name>
Isoxazolo(3,4-d)pyridazin-7(6H)-one, 4-phenyl-

> <Source>
Chemidplus3DMolFile

> <Tox>
2.329

> <CAS>
25506-06-3

$$$$

  CDK

 11 11  0  0  0  0  0  0  0  0999 V2000
    0.5131    0.0000    0.0000 C   0  0  0  0  0  0  0  0  0  0  0  0
    0.0000    0.8722    0.0000 C   0  0  0  0  0  0  0  0  0  0  0  0
    0.5131    1.6931    0.0000 C   0  0  0  0  0  0  0  0  0  0  0  0
    1.5392    1.6931    0.0000 C   0  0  0  0  0  0  0  0  0  0  0  0
    2.0009    0.8722    0.0000 C   0  0  0  0  0  0  0  0  0  0  0  0
    2.0009    2.6166    0.0000 C   0  0  0  0  0  0  0  0  0  0  0  0
    3.0270    0.8722    0.0000 C   0  0  0  0  0  0  0  0  0  0  0  0
    3.0270    2.6166    0.0000 C   0  0  0  0  0  0  0  0  0  0  0  0
    3.5401    1.6931    0.0000 C   0  0  0  0  0  0  0  0  0  0  0  0
    4.5149    1.6931    0.0000 O   0  0  0  0  0  0  0  0  0  0  0  0
    5.0280    0.8722    0.0000 C   0  0  0  0  0  0  0  0  0  0  0  0
  1  2  1  0  0  0  0 
  2  3  2  0  0  0  0 
  3  4  1  0  0  0  0 
  4  5  2  0  0  0  0 
  6  4  1  0  0  0  0 
  5  7  1  0  0  0  0 
  8  6  2  0  0  0  0 
  7  9  2  0  0  0  0 
  9  8  1  0  0  0  0 
  9 10  1  0  0  0  0 
 10 11  1  0  0  0  0 
M  END
> <Name>
Benzene, 1-methoxy-4-(1-propenyl)-, (Z)- (9CI)

> <Source>
NIST2DMolFile

> <Tox>
2.995

> <CAS>
25679-28-1

$$$$

  CDK

 28 28  0  0  0  0  0  0  0  0999 V2000
   -3.1066    1.2231   -0.0497 C   0  0  0  0  0  0  0  0  0  0  0  0
   -3.8372    0.0779    0.2791 C   0  0  0  0  0  0  0  0  0  0  0  0
   -3.7501    2.4622   -0.1197 C   0  0  0  0  0  0  0  0  0  0  0  0
   -1.6342    1.2391   -0.3184 C   0  0  0  0  0  0  0  0  0  0  0  0
   -5.2085    0.1935    0.5376 C   0  0  0  0  0  0  0  0  0  0  0  0
   -3.2586   -1.2944    0.3889 C   0  0  0  0  0  0  0  0  0  0  0  0
   -5.1122    2.5638    0.1319 C   0  0  0  0  0  0  0  0  0  0  0  0
   -0.7567    1.5048    0.4769 O   0  0  0  0  0  0  0  0  0  0  0  0
   -1.3384    0.9734   -1.6246 O   0  0  0  0  0  0  0  0  0  0  0  0
   -5.8421    1.4268    0.4616 C   0  0  0  0  0  0  0  0  0  0  0  0
   -3.5844   -2.1450    1.1950 O   0  0  0  0  0  0  0  0  0  0  0  0
   -2.3211   -1.5783   -0.5588 O   0  0  0  0  0  0  0  0  0  0  0  0
   -0.0681    1.3132   -2.1565 C   0  0  0  0  0  0  0  0  0  0  0  0
   -1.7800   -2.8877   -0.6604 C   0  0  0  0  0  0  0  0  0  0  0  0
    1.1060    0.4382   -1.7220 C   0  0  0  0  0  0  0  0  0  0  0  0
   -0.7745   -3.2584    0.4211 C   0  0  0  0  0  0  0  0  0  0  0  0
    2.2273    0.5811   -2.7458 C   0  0  0  0  0  0  0  0  0  0  0  0
    0.4555   -2.3682    0.4456 C   0  0  0  0  0  0  0  0  0  0  0  0
    3.6088    0.3203   -2.1698 C   0  0  0  0  0  0  0  0  0  0  0  0
    1.5128   -2.9623    1.3665 C   0  0  0  0  0  0  0  0  0  0  0  0
    3.8956   -1.1580   -1.9679 C   0  0  0  0  0  0  0  0  0  0  0  0
    2.7840   -2.1325    1.3905 C   0  0  0  0  0  0  0  0  0  0  0  0
    5.2657   -1.3671   -1.3622 C   0  0  0  0  0  0  0  0  0  0  0  0
    2.5385   -0.7200    1.8963 C   0  0  0  0  0  0  0  0  0  0  0  0
    3.7880    0.1378    1.7681 C   0  0  0  0  0  0  0  0  0  0  0  0
    3.4486    1.6189    1.7695 C   0  0  0  0  0  0  0  0  0  0  0  0
    4.6905    2.4697    1.5567 C   0  0  0  0  0  0  0  0  0  0  0  0
    4.3636    3.9454    1.5870 C   0  0  0  0  0  0  0  0  0  0  0  0
  1  2  1  0  0  0  0 
  1  3  2  0  0  0  0 
  1  4  1  0  0  0  0 
  2  5  2  0  0  0  0 
  2  6  1  0  0  0  0 
  7  3  1  0  0  0  0 
  4  8  2  0  0  0  0 
  4  9  1  0  0  0  0 
  5 10  1  0  0  0  0 
  6 11  2  0  0  0  0 
  6 12  1  0  0  0  0 
 10  7  2  0  0  0  0 
  9 13  1  0  0  0  0 
 12 14  1  0  0  0  0 
 13 15  1  0  0  0  0 
 14 16  1  0  0  0  0 
 15 17  1  0  0  0  0 
 16 18  1  0  0  0  0 
 17 19  1  0  0  0  0 
 18 20  1  0  0  0  0 
 19 21  1  0  0  0  0 
 20 22  1  0  0  0  0 
 21 23  1  0  0  0  0 
 22 24  1  0  0  0  0 
 24 25  1  0  0  0  0 
 25 26  1  0  0  0  0 
 26 27  1  0  0  0  0 
 27 28  1  0  0  0  0 
M  END
> <Name>
1,2-Benzenedicarboxylic acid, decyl hexyl ester

> <Source>
DougDB3DMolFile

> <Tox>
0.905

> <CAS>
25724-58-7

$$$$

  CDK

 18 18  0  0  0  0  0  0  0  0999 V2000
    4.6120   -1.6414    0.0000 C   0  0  0  0  0  0  0  0  0  0  0  0
    3.4641   -2.3060    0.0000 C   0  0  0  0  0  0  0  0  0  0  0  0
    3.4641   -3.6352    0.0000 C   0  0  0  0  0  0  0  0  0  0  0  0
    2.3060   -1.6414    0.0000 C   0  0  0  0  0  0  0  0  0  0  0  0
    2.3060   -4.2999    0.0000 C   0  0  0  0  0  0  0  0  0  0  0  0
    4.6120   -4.2999    0.0000 O   0  0  0  0  0  0  0  0  0  0  0  0
    1.1580   -2.3060    0.0000 C   0  0  0  0  0  0  0  0  0  0  0  0
    1.1580   -3.6352    0.0000 C   0  0  0  0  0  0  0  0  0  0  0  0
    5.7701   -3.6352    0.0000 C   0  0  0  0  0  0  0  0  0  0  0  0
    0.0000   -4.2999    0.0000 C   0  0  0  0  0  0  0  0  0  0  0  0
    5.7701   -2.3060    0.0000 C   0  0  0  0  0  0  0  0  0  0  0  0
    6.9180   -1.6414    0.0000 C   0  0  0  0  0  0  0  0  0  0  0  0
    8.0761   -2.3060    0.0000 C   0  0  0  0  0  0  0  0  0  0  0  0
    8.7407   -1.1480    0.0000 C   0  0  0  0  0  0  0  0  0  0  0  0
    9.2240   -2.9706    0.0000 C   0  0  0  0  0  0  0  0  0  0  0  0
    7.4115   -3.4540    0.0000 C   0  0  0  0  0  0  0  0  0  0  0  0
    8.0761   -0.0000    0.0000 O   0  0  0  0  0  0  0  0  0  0  0  0
   10.0699   -1.1480    0.0000 O   0  0  0  0  0  0  0  0  0  0  0  0
  1  2  1  0  0  0  0 
  2  3  2  0  0  0  0 
  2  4  1  0  0  0  0 
  3  5  1  0  0  0  0 
  3  6  1  0  0  0  0 
  7  4  2  0  0  0  0 
  5  8  2  0  0  0  0 
  6  9  1  0  0  0  0 
  8  7  1  0  0  0  0 
  8 10  1  0  0  0  0 
  9 11  1  0  0  0  0 
 11 12  1  0  0  0  0 
 12 13  1  0  0  0  0 
 13 14  1  0  0  0  0 
 13 15  1  0  0  0  0 
 13 16  1  0  0  0  0 
 14 17  2  0  0  0  0 
 14 18  1  0  0  0  0 
M  END
> <Name>
Pentanoic acid, 5-(2,5-dimethylphenoxy)-2,2-dimethyl-

> <Source>
DSSTox2DMolFile

> <Tox>
2.248

> <CAS>
25812-30-0

$$$$

  CDK

 16 16  0  0  0  0  0  0  0  0999 V2000
    2.0638   -0.1302   -0.4498 C   0  0  0  0  0  0  0  0  0  0  0  0
    0.7717   -0.7942   -0.1419 C   0  0  0  0  0  0  0  0  0  0  0  0
    2.2523    1.0239   -0.7823 O   0  0  0  0  0  0  0  0  0  0  0  0
    3.1213   -0.9902   -0.3314 O   0  0  0  0  0  0  0  0  0  0  0  0
   -0.3825   -0.1252   -0.2144 C   0  0  0  0  0  0  0  0  0  0  0  0
    4.4377   -0.5319   -0.5983 C   0  0  0  0  0  0  0  0  0  0  0  0
   -1.6743   -0.7916    0.0950 C   0  0  0  0  0  0  0  0  0  0  0  0
    5.0467    0.1487    0.6163 C   0  0  0  0  0  0  0  0  0  0  0  0
   -1.8561   -1.9425    0.4453 O   0  0  0  0  0  0  0  0  0  0  0  0
   -2.7352    0.0501   -0.0533 O   0  0  0  0  0  0  0  0  0  0  0  0
    5.4664    1.5759    0.5642 C   0  0  0  0  0  0  0  0  0  0  0  0
    6.4289    0.5198    0.4862 O   0  0  0  0  0  0  0  0  0  0  0  0
   -4.0456   -0.4566    0.2108 C   0  0  0  0  0  0  0  0  0  0  0  0
   -5.0089    0.7001   -0.0381 C   0  0  0  0  0  0  0  0  0  0  0  0
   -6.4402    0.2540    0.2152 C   0  0  0  0  0  0  0  0  0  0  0  0
   -7.4178    1.3824   -0.0231 C   0  0  0  0  0  0  0  0  0  0  0  0
  1  2  1  0  0  0  0 
  1  3  2  0  0  0  0 
  1  4  1  0  0  0  0 
  2  5  2  0  0  0  0 
  4  6  1  0  0  0  0 
  5  7  1  0  0  0  0 
  6  8  1  0  0  0  0 
  7  9  2  0  0  0  0 
  7 10  1  0  0  0  0 
  8 11  1  0  0  0  0 
  8 12  1  0  0  0  0 
 10 13  1  0  0  0  0 
 11 12  1  0  0  0  0 
 13 14  1  0  0  0  0 
 14 15  1  0  0  0  0 
 15 16  1  0  0  0  0 
M  END
> <Name>
2-Butenedioic acid (E)-, butyl oxiranylmethyl ester (9CI)

> <Source>
DougDB3DMolFile

> <Tox>
2.501

> <CAS>
25876-07-7

$$$$

  CDK

 14 13  0  0  0  0  0  0  0  0999 V2000
    5.4274    1.4972    0.3459 C   0  0  0  0  0  0  0  0  0  0  0  0
    5.0251    0.2329   -0.4279 C   0  0  0  0  0  0  0  0  0  0  0  0
    4.6112    2.6005    0.0650 O   0  0  0  0  0  0  0  0  0  0  0  0
    3.8823   -0.3020    0.2216 O   0  0  0  0  0  0  0  0  0  0  0  0
    3.3370   -1.4322   -0.4406 C   0  0  0  0  0  0  0  0  0  0  0  0
    2.0546   -1.8219    0.3040 C   0  0  0  0  0  0  0  0  0  0  0  0
    0.9936   -1.0675   -0.2591 O   0  0  0  0  0  0  0  0  0  0  0  0
   -0.2420   -1.2528    0.4154 C   0  0  0  0  0  0  0  0  0  0  0  0
   -1.2801   -0.4089   -0.3188 C   0  0  0  0  0  0  0  0  0  0  0  0
   -2.6411   -0.5490    0.3434 C   0  0  0  0  0  0  0  0  0  0  0  0
   -3.6907    0.2831   -0.3753 C   0  0  0  0  0  0  0  0  0  0  0  0
   -5.0526    0.1450    0.2854 C   0  0  0  0  0  0  0  0  0  0  0  0
   -6.1044    0.9746   -0.4337 C   0  0  0  0  0  0  0  0  0  0  0  0
   -7.4598    0.8395    0.2225 C   0  0  0  0  0  0  0  0  0  0  0  0
  1  2  1  0  0  0  0 
  1  3  1  0  0  0  0 
  2  4  1  0  0  0  0 
  4  5  1  0  0  0  0 
  5  6  1  0  0  0  0 
  6  7  1  0  0  0  0 
  7  8  1  0  0  0  0 
  8  9  1  0  0  0  0 
  9 10  1  0  0  0  0 
 10 11  1  0  0  0  0 
 11 12  1  0  0  0  0 
 12 13  1  0  0  0  0 
 13 14  1  0  0  0  0 
M  END
> <Name>
Ethanol, 2-(2-(heptyloxy)ethoxy)-

> <Source>
DougDB3DMolFile

> <Tox>
1.842

> <CAS>
25961-87-9

$$$$

  CDK

 10  9  0  0  0  0  0  0  0  0999 V2000
    0.0000    0.0000    0.0000 S   0  0  0  0  0  0  0  0  0  0  0  0
   -1.1200   -0.5200   -1.1400 C   0  0  0  0  0  0  0  0  0  0  0  0
   -1.2000    0.4200   -2.5400 S   0  0  0  0  0  0  0  0  0  0  0  0
   -1.9000   -1.5800   -0.9800 O   0  0  0  0  0  0  0  0  0  0  0  0
    0.3800    1.7000   -2.3600 S   0  0  0  0  0  0  0  0  0  0  0  0
   -2.7800   -1.7800   -2.0800 C   0  0  0  0  0  0  0  0  0  0  0  0
    1.7200    0.8000   -3.1600 C   0  0  0  0  0  0  0  0  0  0  0  0
    1.0000   -0.6000   -4.0000 Cl  0  0  0  0  0  0  0  0  0  0  0  0
    2.9000    0.2400   -1.9600 Cl  0  0  0  0  0  0  0  0  0  0  0  0
    2.5400    1.8400   -4.3600 Cl  0  0  0  0  0  0  0  0  0  0  0  0
  1  2  2  0  0  0  0 
  2  3  1  0  0  0  0 
  2  4  1  0  0  0  0 
  3  5  1  0  0  0  0 
  4  6  1  0  0  0  0 
  5  7  1  0  0  0  0 
  7  8  1  0  0  0  0 
  7  9  1  0  0  0  0 
  7 10  1  0  0  0  0 
M  END
> <Name>
Peroxycarbonic acid, trithio-, O-methyl SS-(trichloromethyl) ester (8CI)

> <Source>
NIH3DMolFile

> <Tox>
2.223

> <CAS>
25991-93-9

$$$$

  CDK

  5  5  0  0  0  0  0  0  0  0999 V2000
   -1.2065   -0.0767    0.0000 C   0  0  0  0  0  0  0  0  0  0  0  0
   -0.3824   -0.0371    0.0000 C   0  0  0  0  0  0  0  0  0  0  0  0
    0.4416    0.0025    0.0000 C   0  0  0  0  0  0  0  0  0  0  0  0
    1.0307   -0.5751    0.0000 O   0  0  0  0  0  0  0  0  0  0  0  0
    1.2364    0.2238    0.0000 C   0  0  0  0  0  0  0  0  0  0  0  0
  1  2  1  0  0  0  0 
  2  3  1  0  0  0  0 
  3  4  1  0  0  0  0 
  3  5  1  0  0  0  0 
  4  5  1  0  0  0  0 
M  END
> <Name>
Ucar butylene oxide 12 (Obs.)

> <Source>
Smiles

> <Tox>
1.795

> <CAS>
26249-20-7

$$$$

  CDK

 13 13  0  0  0  0  0  0  0  0999 V2000
   -3.0479    0.3388    0.4865 S   0  0  0  0  0  0  0  0  0  0  0  0
   -1.5699    0.6001    1.5212 C   0  0  0  0  0  0  0  0  0  0  0  0
   -3.3028   -1.4098    0.8924 C   0  0  0  0  0  0  0  0  0  0  0  0
   -1.2306   -0.8898    2.5098 S   0  0  0  0  0  0  0  0  0  0  0  0
   -1.7822    1.8002    2.4370 C   0  0  0  0  0  0  0  0  0  0  0  0
   -0.4089    0.8246    0.6040 C   0  0  0  0  0  0  0  0  0  0  0  0
   -2.8727   -1.6274    2.3285 C   0  0  0  0  0  0  0  0  0  0  0  0
    0.2686    1.9223    0.6515 N   0  0  0  0  0  0  0  0  0  0  0  0
    1.2867    1.8592   -0.3099 O   0  0  0  0  0  0  0  0  0  0  0  0
    2.0102    3.0197   -0.2661 C   0  0  0  0  0  0  0  0  0  0  0  0
    1.7922    3.9576    0.4949 O   0  0  0  0  0  0  0  0  0  0  0  0
    3.0166    2.9705   -1.2086 N   0  0  0  0  0  0  0  0  0  0  0  0
    3.9639    4.0395   -1.4256 C   0  0  0  0  0  0  0  0  0  0  0  0
  1  2  1  0  0  0  0 
  1  3  1  0  0  0  0 
  4  2  1  0  0  0  0 
  2  5  1  0  0  0  0 
  2  6  1  0  0  0  0 
  3  7  1  0  0  0  0 
  4  7  1  0  0  0  0 
  8  6  2  0  0  0  0 
  9  8  1  0  0  0  0 
  9 10  1  0  0  0  0 
 11 10  2  0  0  0  0 
 12 10  1  0  0  0  0 
 12 13  1  0  0  0  0 
M  END
> <Name>
1,3-Dithiolane-2-carboxaldehyde, 2-methyl-, O-((methylamino)carbonyl)oxime

> <Source>
Chemidplus3DMolFile

> <Tox>
4.572

> <CAS>
26419-69-2

$$$$

  CDK

 26 29  0  0  0  0  0  0  0  0999 V2000
    3.6266    0.2152   -1.7534 O   0  0  0  0  0  0  0  0  0  0  0  0
    2.8512   -0.7278   -1.8104 C   0  0  0  0  0  0  0  0  0  0  0  0
    2.8253   -1.8248   -2.6846 N   0  0  0  0  0  0  0  0  0  0  0  0
    1.7630   -0.9783   -0.7930 C   0  0  0  0  0  0  0  0  0  0  0  0
    1.6987   -2.6420   -2.4229 N   0  0  0  0  0  0  0  0  0  0  0  0
    3.9764   -2.2519   -3.4135 C   0  0  0  0  0  0  0  0  0  0  0  0
    0.7987    0.1920   -0.7240 C   0  0  0  0  0  0  0  0  0  0  0  0
    1.0668   -2.2439   -1.2347 C   0  0  0  0  0  0  0  0  0  0  0  0
    1.0384   -3.4387   -3.4071 C   0  0  0  0  0  0  0  0  0  0  0  0
    4.9489   -1.3244   -3.7937 C   0  0  0  0  0  0  0  0  0  0  0  0
    4.1344   -3.5986   -3.7483 C   0  0  0  0  0  0  0  0  0  0  0  0
    0.1445    0.4630   -2.0550 C   0  0  0  0  0  0  0  0  0  0  0  0
    0.0898   -2.7124   -0.6693 O   0  0  0  0  0  0  0  0  0  0  0  0
    0.0498   -4.3485   -3.0248 C   0  0  0  0  0  0  0  0  0  0  0  0
    1.3779   -3.3111   -4.7561 C   0  0  0  0  0  0  0  0  0  0  0  0
    6.0737   -1.7414   -4.5055 C   0  0  0  0  0  0  0  0  0  0  0  0
    5.2593   -4.0155   -4.4599 C   0  0  0  0  0  0  0  0  0  0  0  0
    0.7465    1.3414   -2.9437 C   0  0  0  0  0  0  0  0  0  0  0  0
   -1.0484   -0.1706   -2.3696 C   0  0  0  0  0  0  0  0  0  0  0  0
   -0.5955   -5.1265   -3.9860 C   0  0  0  0  0  0  0  0  0  0  0  0
    0.7324   -4.0892   -5.7172 C   0  0  0  0  0  0  0  0  0  0  0  0
    6.2289   -3.0869   -4.8385 C   0  0  0  0  0  0  0  0  0  0  0  0
    0.1414    1.5921   -4.1752 C   0  0  0  0  0  0  0  0  0  0  0  0
   -1.6533    0.0801   -3.6012 C   0  0  0  0  0  0  0  0  0  0  0  0
   -0.2543   -4.9968   -5.3321 C   0  0  0  0  0  0  0  0  0  0  0  0
   -1.0583    0.9615   -4.5040 C   0  0  0  0  0  0  0  0  0  0  0  0
  1  2  2  0  0  0  0 
  3  2  1  0  0  0  0 
  4  2  1  0  0  0  0 
  3  5  1  0  0  0  0 
  3  6  1  0  0  0  0 
  4  7  1  0  0  0  0 
  4  8  1  0  0  0  0 
  5  8  1  0  0  0  0 
  5  9  1  0  0  0  0 
  6 10  2  0  0  0  0 
  6 11  1  0  0  0  0 
  7 12  1  0  0  0  0 
 13  8  2  0  0  0  0 
  9 14  2  0  0  0  0 
  9 15  1  0  0  0  0 
 10 16  1  0  0  0  0 
 11 17  2  0  0  0  0 
 12 18  2  0  0  0  0 
 12 19  1  0  0  0  0 
 14 20  1  0  0  0  0 
 15 21  2  0  0  0  0 
 16 22  2  0  0  0  0 
 17 22  1  0  0  0  0 
 18 23  1  0  0  0  0 
 19 24  2  0  0  0  0 
 20 25  2  0  0  0  0 
 21 25  1  0  0  0  0 
 23 26  2  0  0  0  0 
 24 26  1  0  0  0  0 
M  END
> <Name>
3,5-Pyrazolidinedione, 4-benzyl-1,2-diphenyl-

> <Source>
Chemidplus3DMolFile

> <Tox>
3.062

> <CAS>
26485-73-4

$$$$

  CDK

 21 21  0  0  0  0  0  0  0  0999 V2000
    6.9063   -2.6625    0.0000 C   0  0  0  0  0  0  0  0  0  0  0  0
    6.9063   -3.9857    0.0000 O   0  0  0  0  0  0  0  0  0  0  0  0
    8.0682   -2.0009    0.0000 O   0  0  0  0  0  0  0  0  0  0  0  0
    5.7607   -2.0009    0.0000 C   0  0  0  0  0  0  0  0  0  0  0  0
    9.2138   -2.6625    0.0000 C   0  0  0  0  0  0  0  0  0  0  0  0
    4.6150   -2.6625    0.0000 O   0  0  0  0  0  0  0  0  0  0  0  0
   10.3757   -2.0009    0.0000 C   0  0  0  0  0  0  0  0  0  0  0  0
    3.4693   -2.0009    0.0000 C   0  0  0  0  0  0  0  0  0  0  0  0
   11.5213   -2.6625    0.0000 C   0  0  0  0  0  0  0  0  0  0  0  0
    2.3075   -2.6625    0.0000 C   0  0  0  0  0  0  0  0  0  0  0  0
    3.4693   -0.6616    0.0000 C   0  0  0  0  0  0  0  0  0  0  0  0
   12.6670   -2.0009    0.0000 C   0  0  0  0  0  0  0  0  0  0  0  0
    1.1618   -2.0009    0.0000 C   0  0  0  0  0  0  0  0  0  0  0  0
    2.3075   -3.9857    0.0000 C   0  0  0  0  0  0  0  0  0  0  0  0
    2.3075   -0.0000    0.0000 C   0  0  0  0  0  0  0  0  0  0  0  0
   13.8288   -2.6625    0.0000 C   0  0  0  0  0  0  0  0  0  0  0  0
    1.1618   -0.6616    0.0000 C   0  0  0  0  0  0  0  0  0  0  0  0
   14.9745   -2.0009    0.0000 C   0  0  0  0  0  0  0  0  0  0  0  0
    0.0000   -0.0000    0.0000 Cl  0  0  0  0  0  0  0  0  0  0  0  0
   16.1363   -2.6625    0.0000 C   0  0  0  0  0  0  0  0  0  0  0  0
   14.9745   -0.6616    0.0000 C   0  0  0  0  0  0  0  0  0  0  0  0
  1  2  2  0  0  0  0 
  1  3  1  0  0  0  0 
  1  4  1  0  0  0  0 
  3  5  1  0  0  0  0 
  4  6  1  0  0  0  0 
  5  7  1  0  0  0  0 
  6  8  1  0  0  0  0 
  7  9  1  0  0  0  0 
  8 10  2  0  0  0  0 
  8 11  1  0  0  0  0 
  9 12  1  0  0  0  0 
 10 13  1  0  0  0  0 
 10 14  1  0  0  0  0 
 11 15  2  0  0  0  0 
 12 16  1  0  0  0  0 
 13 17  2  0  0  0  0 
 15 17  1  0  0  0  0 
 16 18  1  0  0  0  0 
 17 19  1  0  0  0  0 
 18 20  1  0  0  0  0 
 18 21  1  0  0  0  0 
M  END
> <Name>
Acetic acid, (4-chloro-2-methylphenoxy)-, isooctyl ester (9CI)

> <Source>
DSSTox2DMolFile

> <Tox>
2.650

> <CAS>
26544-20-7

$$$$

  CDK

 22 22  0  0  0  0  0  0  0  0999 V2000
    2.2763   -1.1471    0.0000 C   0  0  0  0  0  0  0  0  0  0  0  0
    3.4324   -1.8192    0.0000 C   0  0  0  0  0  0  0  0  0  0  0  0
    1.1292   -0.4929    0.0000 Cl  0  0  0  0  0  0  0  0  0  0  0  0
    2.9664   -0.0000    0.0000 Cl  0  0  0  0  0  0  0  0  0  0  0  0
    1.6131   -2.3121    0.0000 Cl  0  0  0  0  0  0  0  0  0  0  0  0
    3.4324   -3.1546    0.0000 N   0  0  0  0  0  0  0  0  0  0  0  0
    4.5705   -1.1471    0.0000 N   0  0  0  0  0  0  0  0  0  0  0  0
    4.5705   -3.8177    0.0000 C   0  0  0  0  0  0  0  0  0  0  0  0
    2.2763   -3.8177    0.0000 C   0  0  0  0  0  0  0  0  0  0  0  0
    5.6997   -1.8461    0.0000 C   0  0  0  0  0  0  0  0  0  0  0  0
    4.5705   -5.1351    0.0000 C   0  0  0  0  0  0  0  0  0  0  0  0
    2.2763   -5.1351    0.0000 C   0  0  0  0  0  0  0  0  0  0  0  0
    6.8648   -1.1830    0.0000 O   0  0  0  0  0  0  0  0  0  0  0  0
    3.4324   -5.7983    0.0000 N   0  0  0  0  0  0  0  0  0  0  0  0
    3.4324   -7.1246    0.0000 C   0  0  0  0  0  0  0  0  0  0  0  0
    4.5705   -7.8057    0.0000 C   0  0  0  0  0  0  0  0  0  0  0  0
    2.2763   -7.8057    0.0000 N   0  0  0  0  0  0  0  0  0  0  0  0
    3.8984   -8.9618    0.0000 Cl  0  0  0  0  0  0  0  0  0  0  0  0
    5.2427   -6.6317    0.0000 Cl  0  0  0  0  0  0  0  0  0  0  0  0
    5.7176   -8.4689    0.0000 Cl  0  0  0  0  0  0  0  0  0  0  0  0
    1.1471   -7.1246    0.0000 C   0  0  0  0  0  0  0  0  0  0  0  0
    0.0000   -7.8057    0.0000 O   0  0  0  0  0  0  0  0  0  0  0  0
  1  2  1  0  0  0  0 
  1  3  1  0  0  0  0 
  1  4  1  0  0  0  0 
  1  5  1  0  0  0  0 
  2  6  1  0  0  0  0 
  2  7  1  0  0  0  0 
  6  8  1  0  0  0  0 
  6  9  1  0  0  0  0 
  7 10  1  0  0  0  0 
  8 11  1  0  0  0  0 
 12  9  1  0  0  0  0 
 10 13  2  0  0  0  0 
 14 11  1  0  0  0  0 
 14 12  1  0  0  0  0 
 15 14  1  0  0  0  0 
 16 15  1  0  0  0  0 
 15 17  1  0  0  0  0 
 16 18  1  0  0  0  0 
 16 19  1  0  0  0  0 
 16 20  1  0  0  0  0 
 17 21  1  0  0  0  0 
 21 22  2  0  0  0  0 
M  END
> <Name>
Formamide, N,N'-(1,4-piperazinediylbis(2,2,2-trichloroethylidene))bis-

> <Source>
DSSTox2DMolFile

> <Tox>
1.860

> <CAS>
26644-46-2

$$$$

  CDK

 10  9  0  0  0  0  0  0  0  0999 V2000
    0.4898   -2.3048    0.0000 F   0  0  0  0  0  0  0  0  0  0  0  0
    1.1524   -1.1524    0.0000 C   0  0  0  0  0  0  0  0  0  0  0  0
    2.3048   -1.8150    0.0000 C   0  0  0  0  0  0  0  0  0  0  0  0
    0.0000   -0.4840    0.0000 F   0  0  0  0  0  0  0  0  0  0  0  0
    1.8150   -0.0000    0.0000 F   0  0  0  0  0  0  0  0  0  0  0  0
    3.4571   -1.1524    0.0000 O   0  0  0  0  0  0  0  0  0  0  0  0
    2.3048   -3.1460    0.0000 Cl  0  0  0  0  0  0  0  0  0  0  0  0
    4.6095   -1.8150    0.0000 C   0  0  0  0  0  0  0  0  0  0  0  0
    4.6095   -3.1460    0.0000 F   0  0  0  0  0  0  0  0  0  0  0  0
    5.7619   -1.1524    0.0000 F   0  0  0  0  0  0  0  0  0  0  0  0
  1  2  1  0  0  0  0 
  2  3  1  0  0  0  0 
  2  4  1  0  0  0  0 
  2  5  1  0  0  0  0 
  3  6  1  0  0  0  0 
  3  7  1  0  0  0  0 
  6  8  1  0  0  0  0 
  8  9  1  0  0  0  0 
  8 10  1  0  0  0  0 
M  END
> <Name>
Ethane, 2-chloro-2-(difluoromethoxy)-1,1,1-trifluoro-

> <Source>
DSSTox2DMolFile

> <Tox>
1.426

> <CAS>
26675-46-7

$$$$

  CDK

 13 12  0  0  0  0  0  0  0  0999 V2000
    4.8506    1.2127    0.0000 O   0  0  0  0  0  0  0  0  0  0  0  0
    6.0633    0.5130    0.0000 C   0  0  0  0  0  0  0  0  0  0  0  0
    3.6380    0.5130    0.0000 C   0  0  0  0  0  0  0  0  0  0  0  0
    7.2760    1.2127    0.0000 S   0  0  0  0  0  0  0  0  0  0  0  0
    2.4253    1.2127    0.0000 S   0  0  0  0  0  0  0  0  0  0  0  0
    8.4886    1.9123    0.0000 C   0  0  0  0  0  0  0  0  0  0  0  0
    7.9756    0.0000    0.0000 O   0  0  0  0  0  0  0  0  0  0  0  0
    6.5763    2.3787    0.0000 O   0  0  0  0  0  0  0  0  0  0  0  0
    1.2127    1.9123    0.0000 C   0  0  0  0  0  0  0  0  0  0  0  0
    3.1249    2.3787    0.0000 O   0  0  0  0  0  0  0  0  0  0  0  0
    1.7257    0.0000    0.0000 O   0  0  0  0  0  0  0  0  0  0  0  0
    9.7013    1.2127    0.0000 C   0  0  0  0  0  0  0  0  0  0  0  0
    0.0000    1.2127    0.0000 C   0  0  0  0  0  0  0  0  0  0  0  0
  1  2  1  0  0  0  0 
  1  3  1  0  0  0  0 
  2  4  1  0  0  0  0 
  3  5  1  0  0  0  0 
  4  6  1  0  0  0  0 
  4  7  2  0  0  0  0 
  4  8  2  0  0  0  0 
  5  9  1  0  0  0  0 
  5 10  2  0  0  0  0 
  5 11  2  0  0  0  0 
  6 12  2  0  0  0  0 
  9 13  2  0  0  0  0 
M  END
> <Name>
Ethene, 1,1'-(oxybis(methylenesulfonyl))bis-

> <Source>
IndexNet2DMolFile

> <Tox>
3.656

> <CAS>
26750-50-5

$$$$

  CDK

 13 14  0  0  0  0  0  0  0  0999 V2000
    0.0000    0.0000    0.0000 C   0  0  0  0  0  0  0  0  0  0  0  0
   -0.9000    1.4600    0.1000 S   0  0  0  0  0  0  0  0  0  0  0  0
   -0.6000   -0.8800    0.8400 N   0  0  0  0  0  0  0  0  0  0  0  0
   -2.0200    0.8600    1.2600 C   0  0  0  0  0  0  0  0  0  0  0  0
   -1.6600   -0.4200    1.5200 N   0  0  0  0  0  0  0  0  0  0  0  0
   -3.1400    1.6200    1.8400 N   0  0  0  0  0  0  0  0  0  0  0  0
   -4.0400    0.9600    2.8200 C   0  0  0  0  0  0  0  0  0  0  0  0
   -5.4000    1.4200    2.5800 N   0  0  0  0  0  0  0  0  0  0  0  0
   -6.3000    1.6400    3.7400 C   0  0  0  0  0  0  0  0  0  0  0  0
   -6.0200    1.4800    5.0400 N   0  0  0  0  0  0  0  0  0  0  0  0
   -7.9200    2.2000    3.6600 S   0  0  0  0  0  0  0  0  0  0  0  0
   -7.0000    1.7600    5.9000 N   0  0  0  0  0  0  0  0  0  0  0  0
   -8.1600    2.1800    5.3600 C   0  0  0  0  0  0  0  0  0  0  0  0
  1  2  1  0  0  0  0 
  1  3  2  0  0  0  0 
  2  4  1  0  0  0  0 
  5  3  1  0  0  0  0 
  4  5  2  0  0  0  0 
  4  6  1  0  0  0  0 
  6  7  1  0  0  0  0 
  7  8  1  0  0  0  0 
  8  9  1  0  0  0  0 
  9 10  2  0  0  0  0 
  9 11  1  0  0  0  0 
 10 12  1  0  0  0  0 
 13 11  1  0  0  0  0 
 12 13  2  0  0  0  0 
M  END
> <Name>
Methanediamine, N,N'-bis(1,3,4-thiadiazol-2-yl)- (9CI)

> <Source>
NIH3DMolFile

> <Tox>
2.916

> <CAS>
26907-37-9

$$$$

  CDK

 25 27  0  0  0  0  0  0  0  0999 V2000
    1.4153    0.7064    0.0000 C   0  0  0  0  0  0  0  0  0  0  0  0
    0.7008    1.1189    0.0000 C   0  0  0  0  0  0  0  0  0  0  0  0
    1.4153   -0.1186    0.0000 C   0  0  0  0  0  0  0  0  0  0  0  0
   -0.0136    0.7064    0.0000 C   0  0  0  0  0  0  0  0  0  0  0  0
    0.7008   -0.5311    0.0000 C   0  0  0  0  0  0  0  0  0  0  0  0
    2.1298   -0.5311    0.0000 N   0  0  0  0  0  0  0  0  0  0  0  0
   -0.6586    1.2208    0.0000 N   0  0  0  0  0  0  0  0  0  0  0  0
   -0.0136   -0.1186    0.0000 C   0  0  0  0  0  0  0  0  0  0  0  0
    2.8442   -0.1186    0.0000 O   0  0  0  0  0  0  0  0  0  0  0  0
    2.1298   -1.3561    0.0000 O   0  0  0  0  0  0  0  0  0  0  0  0
   -0.4751    2.0251    0.0000 C   0  0  0  0  0  0  0  0  0  0  0  0
   -1.4630    1.0372    0.0000 C   0  0  0  0  0  0  0  0  0  0  0  0
   -0.6586   -0.6329    0.0000 C   0  0  0  0  0  0  0  0  0  0  0  0
   -1.0798    2.5863    0.0000 O   0  0  0  0  0  0  0  0  0  0  0  0
    0.3133    2.2683    0.0000 N   0  0  0  0  0  0  0  0  0  0  0  0
   -1.9773    1.6823    0.0000 O   0  0  0  0  0  0  0  0  0  0  0  0
   -1.8209    0.2939    0.0000 C   0  0  0  0  0  0  0  0  0  0  0  0
   -1.4630   -0.4494    0.0000 N   0  0  0  0  0  0  0  0  0  0  0  0
   -0.4751   -1.4372    0.0000 C   0  0  0  0  0  0  0  0  0  0  0  0
    0.4969    3.0726    0.0000 C   0  0  0  0  0  0  0  0  0  0  0  0
   -1.0798   -1.9984    0.0000 C   0  0  0  0  0  0  0  0  0  0  0  0
    0.3133   -1.6804    0.0000 C   0  0  0  0  0  0  0  0  0  0  0  0
   -0.8963   -2.8027    0.0000 C   0  0  0  0  0  0  0  0  0  0  0  0
    0.4969   -2.4847    0.0000 C   0  0  0  0  0  0  0  0  0  0  0  0
   -0.1079   -3.0459    0.0000 C   0  0  0  0  0  0  0  0  0  0  0  0
  1  2  1  0  0  0  0 
  1  3  2  0  0  0  0 
  2  4  2  0  0  0  0 
  5  3  1  0  0  0  0 
  3  6  1  0  0  0  0 
  4  7  1  0  0  0  0 
  4  8  1  0  0  0  0 
  8  5  2  0  0  0  0 
  6  9  2  0  0  0  0 
  6 10  2  0  0  0  0 
  7 11  1  0  0  0  0 
  7 12  1  0  0  0  0 
 13  8  1  0  0  0  0 
 11 14  2  0  0  0  0 
 11 15  1  0  0  0  0 
 12 16  2  0  0  0  0 
 12 17  1  0  0  0  0 
 18 13  2  0  0  0  0 
 13 19  1  0  0  0  0 
 15 20  1  0  0  0  0 
 17 18  1  0  0  0  0 
 19 21  1  0  0  0  0 
 19 22  2  0  0  0  0 
 21 23  2  0  0  0  0 
 24 22  1  0  0  0  0 
 23 25  1  0  0  0  0 
 25 24  2  0  0  0  0 
M  END
> <Name>
1H-1,4-Benzodiazepine-1-carboxamide, 2,3-dihydro-N-methyl-7-nitro-2-oxo-5-phenyl-

> <Source>
Smiles

> <Tox>
2.171

> <CAS>
27016-91-7

$$$$

  CDK

 26 28  0  0  0  0  0  0  0  0999 V2000
    7.0894    0.0000    0.0000 C   0  0  0  0  0  0  0  0  0  0  0  0
    7.7890    1.2127    0.0000 O   0  0  0  0  0  0  0  0  0  0  0  0
    7.0894    2.4253    0.0000 C   0  0  0  0  0  0  0  0  0  0  0  0
    5.6902    2.4253    0.0000 C   0  0  0  0  0  0  0  0  0  0  0  0
    7.7890    3.6380    0.0000 C   0  0  0  0  0  0  0  0  0  0  0  0
    4.9906    3.6380    0.0000 C   0  0  0  0  0  0  0  0  0  0  0  0
    7.0894    4.8506    0.0000 C   0  0  0  0  0  0  0  0  0  0  0  0
    5.6902    4.8506    0.0000 C   0  0  0  0  0  0  0  0  0  0  0  0
    7.5092    6.1566    0.0000 C   0  0  0  0  0  0  0  0  0  0  0  0
    5.2704    6.1566    0.0000 N   0  0  0  0  0  0  0  0  0  0  0  0
    6.3898    6.9961    0.0000 C   0  0  0  0  0  0  0  0  0  0  0  0
    8.8617    6.6230    0.0000 C   0  0  0  0  0  0  0  0  0  0  0  0
    3.9178    6.6230    0.0000 C   0  0  0  0  0  0  0  0  0  0  0  0
    6.3898    8.3487    0.0000 C   0  0  0  0  0  0  0  0  0  0  0  0
    9.8412    5.5969    0.0000 C   0  0  0  0  0  0  0  0  0  0  0  0
    3.6380    7.9756    0.0000 O   0  0  0  0  0  0  0  0  0  0  0  0
    2.9384    5.5969    0.0000 C   0  0  0  0  0  0  0  0  0  0  0  0
    9.4681    4.2443    0.0000 O   0  0  0  0  0  0  0  0  0  0  0  0
   11.1938    5.9700    0.0000 N   0  0  0  0  0  0  0  0  0  0  0  0
    3.3115    4.2443    0.0000 C   0  0  0  0  0  0  0  0  0  0  0  0
    1.5858    5.9700    0.0000 C   0  0  0  0  0  0  0  0  0  0  0  0
   12.1732    4.9906    0.0000 O   0  0  0  0  0  0  0  0  0  0  0  0
    2.2854    3.2649    0.0000 C   0  0  0  0  0  0  0  0  0  0  0  0
    0.6063    4.9906    0.0000 C   0  0  0  0  0  0  0  0  0  0  0  0
    0.9328    3.6380    0.0000 C   0  0  0  0  0  0  0  0  0  0  0  0
    0.0000    2.6585    0.0000 Cl  0  0  0  0  0  0  0  0  0  0  0  0
  1  2  1  0  0  0  0 
  2  3  1  0  0  0  0 
  3  4  2  0  0  0  0 
  3  5  1  0  0  0  0 
  4  6  1  0  0  0  0 
  7  5  2  0  0  0  0 
  6  8  2  0  0  0  0 
  9  7  1  0  0  0  0 
  8  7  1  0  0  0  0 
  8 10  1  0  0  0  0 
 11  9  2  0  0  0  0 
  9 12  1  0  0  0  0 
 10 13  1  0  0  0  0 
 10 11  1  0  0  0  0 
 11 14  1  0  0  0  0 
 12 15  1  0  0  0  0 
 13 16  2  0  0  0  0 
 13 17  1  0  0  0  0 
 15 18  2  0  0  0  0 
 15 19  1  0  0  0  0 
 17 20  2  0  0  0  0 
 17 21  1  0  0  0  0 
 19 22  1  0  0  0  0 
 20 23  1  0  0  0  0 
 24 21  2  0  0  0  0 
 23 25  2  0  0  0  0 
 25 24  1  0  0  0  0 
 25 26  1  0  0  0  0 
M  END
> <Name>
1H-Indole-3-acetamide, 1-(4-chlorobenzoyl)-N-hydroxy-5-methoxy-2-methyl- (9CI)

> <Source>
IndexNet2DMolFile

> <Tox>
3.679

> <CAS>
27035-30-9

$$$$

  CDK

 17 18  0  0  0  0  0  0  0  0999 V2000
   -2.6662   -0.7860    3.5244 Cl  0  0  0  0  0  0  0  0  0  0  0  0
   -1.0011   -1.0157    3.1200 C   0  0  0  0  0  0  0  0  0  0  0  0
   -0.7062   -1.6697    1.9237 C   0  0  0  0  0  0  0  0  0  0  0  0
    0.0323   -0.5718    3.9452 C   0  0  0  0  0  0  0  0  0  0  0  0
    0.6204   -1.8763    1.5589 C   0  0  0  0  0  0  0  0  0  0  0  0
   -0.2684    0.2435    5.4397 Cl  0  0  0  0  0  0  0  0  0  0  0  0
    1.3604   -0.7816    3.5740 C   0  0  0  0  0  0  0  0  0  0  0  0
    0.9176   -2.5354    0.3535 N   0  0  0  0  0  0  0  0  0  0  0  0
    1.6552   -1.4356    2.3779 C   0  0  0  0  0  0  0  0  0  0  0  0
    1.0422   -1.7779   -0.6845 C   0  0  0  0  0  0  0  0  0  0  0  0
    1.3559   -2.1190   -1.9828 N   0  0  0  0  0  0  0  0  0  0  0  0
    0.8757   -0.2763   -0.5922 C   0  0  0  0  0  0  0  0  0  0  0  0
    1.5087   -0.9542   -2.8363 C   0  0  0  0  0  0  0  0  0  0  0  0
    1.7891   -3.4192   -2.4308 C   0  0  0  0  0  0  0  0  0  0  0  0
    0.7328    0.1148   -2.0644 C   0  0  0  0  0  0  0  0  0  0  0  0
    3.3126   -3.5106   -2.3976 C   0  0  0  0  0  0  0  0  0  0  0  0
    3.7967   -4.8670   -2.8866 C   0  0  0  0  0  0  0  0  0  0  0  0
  1  2  1  0  0  0  0 
  3  2  1  0  0  0  0 
  2  4  2  0  0  0  0 
  5  3  2  0  0  0  0 
  6  4  1  0  0  0  0 
  7  4  1  0  0  0  0 
  8  5  1  0  0  0  0 
  5  9  1  0  0  0  0 
  9  7  2  0  0  0  0 
  8 10  2  0  0  0  0 
 11 10  1  0  0  0  0 
 12 10  1  0  0  0  0 
 11 13  1  0  0  0  0 
 11 14  1  0  0  0  0 
 15 12  1  0  0  0  0 
 13 15  1  0  0  0  0 
 14 16  1  0  0  0  0 
 16 17  1  0  0  0  0 
M  END
> <Name>
Pyrrolidine, 2-((3,4-dichlorophenyl)imino)-1-propyl-

> <Source>
Chemidplus3DMolFile

> <Tox>
2.107

> <CAS>
27050-40-4

$$$$

  CDK

 30 29  0  0  0  0  0  0  0  0999 V2000
   11.4265   -1.3141    0.0000 C   0  0  0  0  0  0  0  0  0  0  0  0
   12.5692   -1.9996    0.0000 C   0  0  0  0  0  0  0  0  0  0  0  0
   10.2839   -1.9996    0.0000 O   0  0  0  0  0  0  0  0  0  0  0  0
   11.4265   -0.0000    0.0000 O   0  0  0  0  0  0  0  0  0  0  0  0
   13.7118   -1.3141    0.0000 C   0  0  0  0  0  0  0  0  0  0  0  0
    9.1412   -1.3141    0.0000 C   0  0  0  0  0  0  0  0  0  0  0  0
   14.8545   -1.9996    0.0000 C   0  0  0  0  0  0  0  0  0  0  0  0
    7.9986   -1.9996    0.0000 C   0  0  0  0  0  0  0  0  0  0  0  0
   15.9972   -1.3141    0.0000 C   0  0  0  0  0  0  0  0  0  0  0  0
    6.8559   -1.3141    0.0000 C   0  0  0  0  0  0  0  0  0  0  0  0
   17.1398   -1.9996    0.0000 C   0  0  0  0  0  0  0  0  0  0  0  0
    5.7133   -1.9996    0.0000 C   0  0  0  0  0  0  0  0  0  0  0  0
   18.2825   -1.3141    0.0000 O   0  0  0  0  0  0  0  0  0  0  0  0
   17.1398   -3.3137    0.0000 O   0  0  0  0  0  0  0  0  0  0  0  0
    4.5706   -1.3141    0.0000 C   0  0  0  0  0  0  0  0  0  0  0  0
   19.4251   -1.9996    0.0000 C   0  0  0  0  0  0  0  0  0  0  0  0
    3.4280   -1.9996    0.0000 C   0  0  0  0  0  0  0  0  0  0  0  0
   20.5678   -1.3141    0.0000 C   0  0  0  0  0  0  0  0  0  0  0  0
    2.2853   -1.3141    0.0000 C   0  0  0  0  0  0  0  0  0  0  0  0
   21.7104   -1.9996    0.0000 C   0  0  0  0  0  0  0  0  0  0  0  0
    1.1427   -1.9996    0.0000 C   0  0  0  0  0  0  0  0  0  0  0  0
   22.8531   -1.3141    0.0000 C   0  0  0  0  0  0  0  0  0  0  0  0
    0.0000   -1.3141    0.0000 C   0  0  0  0  0  0  0  0  0  0  0  0
    1.1427   -3.3137    0.0000 C   0  0  0  0  0  0  0  0  0  0  0  0
   23.9957   -1.9996    0.0000 C   0  0  0  0  0  0  0  0  0  0  0  0
   25.1384   -1.3141    0.0000 C   0  0  0  0  0  0  0  0  0  0  0  0
   26.2810   -1.9996    0.0000 C   0  0  0  0  0  0  0  0  0  0  0  0
   27.4237   -1.3141    0.0000 C   0  0  0  0  0  0  0  0  0  0  0  0
   28.5663   -1.9996    0.0000 C   0  0  0  0  0  0  0  0  0  0  0  0
   27.4237   -0.0000    0.0000 C   0  0  0  0  0  0  0  0  0  0  0  0
  1  2  1  0  0  0  0 
  1  3  1  0  0  0  0 
  1  4  2  0  0  0  0 
  2  5  1  0  0  0  0 
  3  6  1  0  0  0  0 
  5  7  1  0  0  0  0 
  6  8  1  0  0  0  0 
  7  9  1  0  0  0  0 
  8 10  1  0  0  0  0 
  9 11  1  0  0  0  0 
 10 12  1  0  0  0  0 
 11 13  1  0  0  0  0 
 11 14  2  0  0  0  0 
 12 15  1  0  0  0  0 
 13 16  1  0  0  0  0 
 15 17  1  0  0  0  0 
 16 18  1  0  0  0  0 
 17 19  1  0  0  0  0 
 18 20  1  0  0  0  0 
 19 21  1  0  0  0  0 
 20 22  1  0  0  0  0 
 21 23  1  0  0  0  0 
 21 24  1  0  0  0  0 
 22 25  1  0  0  0  0 
 25 26  1  0  0  0  0 
 26 27  1  0  0  0  0 
 27 28  1  0  0  0  0 
 28 29  1  0  0  0  0 
 28 30  1  0  0  0  0 
M  END
> <Name>
Hexanedioic acid, diisodecyl ester

> <Source>
DSSTox2DMolFile

> <Tox>
1.318

> <CAS>
27178-16-1

$$$$

  CDK

 26 29  0  0  0  0  0  0  0  0999 V2000
    2.5724    1.5636    0.0000 C   0  0  0  0  0  0  0  0  0  0  0  0
    2.5724    2.5220    0.0000 C   0  0  0  0  0  0  0  0  0  0  0  0
    3.3290    0.9584    0.0000 N   0  0  0  0  0  0  0  0  0  0  0  0
    1.7150    1.1097    0.0000 C   0  0  0  0  0  0  0  0  0  0  0  0
    3.3290    3.1273    0.0000 C   0  0  0  0  0  0  0  0  0  0  0  0
    1.7150    2.9760    0.0000 C   0  0  0  0  0  0  0  0  0  0  0  0
    4.2370    1.2106    0.0000 C   0  0  0  0  0  0  0  0  0  0  0  0
    3.1273    0.0000    0.0000 C   0  0  0  0  0  0  0  0  0  0  0  0
    0.8575    1.5636    0.0000 C   0  0  0  0  0  0  0  0  0  0  0  0
    4.2370    2.8751    0.0000 N   0  0  0  0  0  0  0  0  0  0  0  0
    3.0264    4.0352    0.0000 O   0  0  0  0  0  0  0  0  0  0  0  0
    2.0680    4.0856    0.0000 C   0  0  0  0  0  0  0  0  0  0  0  0
    0.8575    2.5220    0.0000 C   0  0  0  0  0  0  0  0  0  0  0  0
    4.6909    2.0176    0.0000 C   0  0  0  0  0  0  0  0  0  0  0  0
    4.8927    0.4540    0.0000 O   0  0  0  0  0  0  0  0  0  0  0  0
    4.8927    3.5812    0.0000 C   0  0  0  0  0  0  0  0  0  0  0  0
    3.6821    4.7414    0.0000 C   0  0  0  0  0  0  0  0  0  0  0  0
    2.0680    5.0945    0.0000 C   0  0  0  0  0  0  0  0  0  0  0  0
    1.2106    3.5812    0.0000 C   0  0  0  0  0  0  0  0  0  0  0  0
    0.0000    3.0264    0.0000 Cl  0  0  0  0  0  0  0  0  0  0  0  0
    4.6405    4.4892    0.0000 C   0  0  0  0  0  0  0  0  0  0  0  0
    5.8511    3.3795    0.0000 O   0  0  0  0  0  0  0  0  0  0  0  0
    3.4299    5.6997    0.0000 C   0  0  0  0  0  0  0  0  0  0  0  0
    1.2106    5.6493    0.0000 C   0  0  0  0  0  0  0  0  0  0  0  0
    0.3026    4.0856    0.0000 C   0  0  0  0  0  0  0  0  0  0  0  0
    0.3026    5.0945    0.0000 C   0  0  0  0  0  0  0  0  0  0  0  0
  1  2  2  0  0  0  0 
  3  1  1  0  0  0  0 
  1  4  1  0  0  0  0 
  2  5  1  0  0  0  0 
  6  2  1  0  0  0  0 
  7  3  1  0  0  0  0 
  3  8  1  0  0  0  0 
  4  9  2  0  0  0  0 
 10  5  1  0  0  0  0 
  5 11  1  0  0  0  0 
  5 12  1  0  0  0  0 
 13  6  2  0  0  0  0 
 14  7  1  0  0  0  0 
  7 15  2  0  0  0  0 
  9 13  1  0  0  0  0 
 10 14  1  0  0  0  0 
 16 10  1  0  0  0  0 
 11 17  1  0  0  0  0 
 18 12  2  0  0  0  0 
 12 19  1  0  0  0  0 
 13 20  1  0  0  0  0 
 21 16  1  0  0  0  0 
 16 22  2  0  0  0  0 
 17 21  2  0  0  0  0 
 17 23  1  0  0  0  0 
 24 18  1  0  0  0  0 
 19 25  2  0  0  0  0 
 26 24  2  0  0  0  0 
 25 26  1  0  0  0  0 
M  END
> <Name>
4H-(1,3)Oxazino(3,2-d)(1,4)benzodiazepine-4,7(6H)-dione, 11-chloro-8,12b-dihydro-2,8-dimethyl-12b-phenyl- (8CI)(9CI)

> <Source>
NIST2DMolFile

> <Tox>
1.868

> <CAS>
27223-35-4

$$$$

  CDK

 19 19  0  0  0  0  0  0  0  0999 V2000
    4.1768   -2.4380   -3.7451 Cl  0  0  0  0  0  0  0  0  0  0  0  0
    2.6502   -3.1169   -4.1741 C   0  0  0  0  0  0  0  0  0  0  0  0
    1.6622   -3.2337   -3.1965 C   0  0  0  0  0  0  0  0  0  0  0  0
    2.3966   -3.5466   -5.4767 C   0  0  0  0  0  0  0  0  0  0  0  0
    0.4460   -3.7774   -3.5464 C   0  0  0  0  0  0  0  0  0  0  0  0
    3.3435   -3.4430   -6.4521 O   0  0  0  0  0  0  0  0  0  0  0  0
    1.1551   -4.0931   -5.8017 C   0  0  0  0  0  0  0  0  0  0  0  0
   -0.6366   -3.9046   -2.4771 C   0  0  0  0  0  0  0  0  0  0  0  0
    0.1672   -4.2100   -4.8240 C   0  0  0  0  0  0  0  0  0  0  0  0
    3.7642   -4.6537   -7.0766 C   0  0  0  0  0  0  0  0  0  0  0  0
   -1.9340   -3.0741   -2.7647 C   0  0  0  0  0  0  0  0  0  0  0  0
   -0.9335   -5.3947   -2.1678 C   0  0  0  0  0  0  0  0  0  0  0  0
    5.1995   -4.5003   -7.5329 C   0  0  0  0  0  0  0  0  0  0  0  0
   -3.0420   -3.2744   -1.7040 C   0  0  0  0  0  0  0  0  0  0  0  0
   -1.6940   -1.5695   -2.9525 C   0  0  0  0  0  0  0  0  0  0  0  0
    0.2488   -6.1012   -1.6824 N   0  0  0  0  0  0  0  0  0  0  0  0
   -2.6412   -2.8254   -0.3054 C   0  0  0  0  0  0  0  0  0  0  0  0
   -0.0641   -7.5066   -1.4219 C   0  0  0  0  0  0  0  0  0  0  0  0
    0.7680   -5.4623   -0.4728 C   0  0  0  0  0  0  0  0  0  0  0  0
  1  2  1  0  0  0  0 
  3  2  1  0  0  0  0 
  2  4  2  0  0  0  0 
  5  3  2  0  0  0  0 
  6  4  1  0  0  0  0 
  7  4  1  0  0  0  0 
  8  5  1  0  0  0  0 
  5  9  1  0  0  0  0 
  6 10  1  0  0  0  0 
  9  7  2  0  0  0  0 
  8 11  1  0  0  0  0 
  8 12  1  0  0  0  0 
 10 13  1  0  0  0  0 
 11 14  1  0  0  0  0 
 11 15  1  0  0  0  0 
 16 12  1  0  0  0  0 
 14 17  1  0  0  0  0 
 16 18  1  0  0  0  0 
 16 19  1  0  0  0  0 
M  END
> <Name>
Phenethylamine, beta-(sec-butyl)-3-chloro-N,N-dimethyl-4-ethoxy-

> <Source>
Chemidplus3DMolFile

> <Tox>
2.799

> <CAS>
27778-80-9

$$$$

  CDK

 47 51  0  0  0  0  0  0  0  0999 V2000
   -0.3400    0.6692    0.2524 C   0  0  0  0  0  0  0  0  0  0  0  0
    0.6467   -0.3996    0.8224 C   0  0  0  0  0  0  0  0  0  0  0  0
   -0.3230    0.5618   -1.2781 C   0  0  0  0  0  0  0  0  0  0  0  0
   -1.7546    0.4669    0.8384 C   0  0  0  0  0  0  0  0  0  0  0  0
    0.0986    2.1038    0.6651 C   0  0  0  0  0  0  0  0  0  0  0  0
    0.4595   -1.8631    0.3164 C   0  0  0  0  0  0  0  0  0  0  0  0
    0.6376   -0.4080    2.2327 O   0  0  0  0  0  0  0  0  0  0  0  0
   -0.6468   -0.8332   -1.7771 C   0  0  0  0  0  0  0  0  0  0  0  0
   -2.6187    1.4542    0.2674 O   0  0  0  0  0  0  0  0  0  0  0  0
    1.4312    2.4565    0.3125 O   0  0  0  0  0  0  0  0  0  0  0  0
    0.2995   -1.8779   -1.2128 C   0  0  0  0  0  0  0  0  0  0  0  0
   -0.6529   -2.6733    1.0428 C   0  0  0  0  0  0  0  0  0  0  0  0
    1.7436   -2.6771    0.6897 C   0  0  0  0  0  0  0  0  0  0  0  0
   -3.9312    1.4582    0.6365 C   0  0  0  0  0  0  0  0  0  0  0  0
    2.4346    2.3592    1.2328 C   0  0  0  0  0  0  0  0  0  0  0  0
   -1.9374   -2.3856    0.4947 O   0  0  0  0  0  0  0  0  0  0  0  0
    2.8835   -2.0929    0.0602 O   0  0  0  0  0  0  0  0  0  0  0  0
   -4.7316    2.4812   -0.0853 C   0  0  0  0  0  0  0  0  0  0  0  0
   -4.3282    0.6814    1.4831 O   0  0  0  0  0  0  0  0  0  0  0  0
    3.7214    2.9391    0.7761 C   0  0  0  0  0  0  0  0  0  0  0  0
    2.2232    1.8281    2.3115 O   0  0  0  0  0  0  0  0  0  0  0  0
   -2.9701   -3.2455    0.7584 C   0  0  0  0  0  0  0  0  0  0  0  0
    4.0632   -2.7812    0.0895 C   0  0  0  0  0  0  0  0  0  0  0  0
   -5.7708    3.1369    0.5883 C   0  0  0  0  0  0  0  0  0  0  0  0
   -4.4881    2.7880   -1.4262 C   0  0  0  0  0  0  0  0  0  0  0  0
    4.9214    2.3794    1.2382 C   0  0  0  0  0  0  0  0  0  0  0  0
    3.7706    4.0399   -0.0833 C   0  0  0  0  0  0  0  0  0  0  0  0
   -4.2269   -2.8923    0.0494 C   0  0  0  0  0  0  0  0  0  0  0  0
   -2.7966   -4.1801    1.5154 O   0  0  0  0  0  0  0  0  0  0  0  0
    5.1364   -2.1265   -0.7015 C   0  0  0  0  0  0  0  0  0  0  0  0
    4.1454   -3.8114    0.7281 O   0  0  0  0  0  0  0  0  0  0  0  0
   -6.5332    4.0625   -0.0344 N   0  0  0  0  0  0  0  0  0  0  0  0
   -5.2837    3.7395   -2.0558 C   0  0  0  0  0  0  0  0  0  0  0  0
    6.1173    2.8813    0.8611 N   0  0  0  0  0  0  0  0  0  0  0  0
    5.0094    4.5487   -0.4585 C   0  0  0  0  0  0  0  0  0  0  0  0
   -4.2179   -2.1339   -1.1289 C   0  0  0  0  0  0  0  0  0  0  0  0
   -5.4499   -3.3346    0.5616 C   0  0  0  0  0  0  0  0  0  0  0  0
    6.4692   -2.2657   -0.2907 C   0  0  0  0  0  0  0  0  0  0  0  0
    4.8530   -1.3969   -1.8590 C   0  0  0  0  0  0  0  0  0  0  0  0
   -6.3010    4.3636   -1.3331 C   0  0  0  0  0  0  0  0  0  0  0  0
    6.1704    3.9472    0.0292 C   0  0  0  0  0  0  0  0  0  0  0  0
   -5.3636   -1.8264   -1.7749 N   0  0  0  0  0  0  0  0  0  0  0  0
   -6.6229   -3.0102   -0.1125 C   0  0  0  0  0  0  0  0  0  0  0  0
    7.4786   -1.7025   -0.9905 N   0  0  0  0  0  0  0  0  0  0  0  0
    5.9022   -0.8245   -2.5699 C   0  0  0  0  0  0  0  0  0  0  0  0
   -6.5502   -2.2529   -1.2815 C   0  0  0  0  0  0  0  0  0  0  0  0
    7.2094   -0.9930   -2.1104 C   0  0  0  0  0  0  0  0  0  0  0  0
  1  2  1  0  0  0  0 
  1  3  1  0  0  0  0 
  1  4  1  0  0  0  0 
  1  5  1  0  0  0  0 
  2  6  1  0  0  0  0 
  2  7  1  0  0  0  0 
  8  3  1  0  0  0  0 
  4  9  1  0  0  0  0 
  5 10  1  0  0  0  0 
  6 11  1  0  0  0  0 
  6 12  1  0  0  0  0 
  6 13  1  0  0  0  0 
 11  8  1  0  0  0  0 
 14  9  1  0  0  0  0 
 15 10  1  0  0  0  0 
 12 16  1  0  0  0  0 
 13 17  1  0  0  0  0 
 18 14  1  0  0  0  0 
 14 19  2  0  0  0  0 
 20 15  1  0  0  0  0 
 15 21  2  0  0  0  0 
 22 16  1  0  0  0  0 
 23 17  1  0  0  0  0 
 24 18  1  0  0  0  0 
 18 25  2  0  0  0  0 
 26 20  1  0  0  0  0 
 20 27  2  0  0  0  0 
 28 22  1  0  0  0  0 
 22 29  2  0  0  0  0 
 30 23  1  0  0  0  0 
 23 31  2  0  0  0  0 
 24 32  2  0  0  0  0 
 25 33  1  0  0  0  0 
 26 34  2  0  0  0  0 
 27 35  1  0  0  0  0 
 36 28  1  0  0  0  0 
 28 37  2  0  0  0  0 
 38 30  1  0  0  0  0 
 30 39  2  0  0  0  0 
 40 32  1  0  0  0  0 
 33 40  2  0  0  0  0 
 41 34  1  0  0  0  0 
 35 41  2  0  0  0  0 
 36 42  2  0  0  0  0 
 37 43  1  0  0  0  0 
 38 44  2  0  0  0  0 
 39 45  1  0  0  0  0 
 46 42  1  0  0  0  0 
 43 46  2  0  0  0  0 
 47 44  1  0  0  0  0 
 45 47  2  0  0  0  0 
M  END
> <Name>
Nicotinic acid, 1,1,3,3-tetraester with 2-hydroxy-1,1,3,3-cyclohexanetetramethanol

> <Source>
DougDB3DMolFile

> <Tox>
1.807

> <CAS>
27959-26-8

$$$$

  CDK

 15 15  0  0  0  0  0  0  0  0999 V2000
    3.4600    0.5088    0.0000 C   0  0  0  0  0  0  0  0  0  0  0  0
    3.4600    1.5774    0.0000 C   0  0  0  0  0  0  0  0  0  0  0  0
    2.5950    0.0000    0.0000 C   0  0  0  0  0  0  0  0  0  0  0  0
    2.5950    2.0862    0.0000 C   0  0  0  0  0  0  0  0  0  0  0  0
    4.3251    2.0862    0.0000 C   0  0  0  0  0  0  0  0  0  0  0  0
    1.7300    0.5597    0.0000 C   0  0  0  0  0  0  0  0  0  0  0  0
    1.7300    1.5774    0.0000 C   0  0  0  0  0  0  0  0  0  0  0  0
    2.5950    3.0021    0.0000 N   0  0  0  0  0  0  0  0  0  0  0  0
    5.1901    1.5774    0.0000 C   0  0  0  0  0  0  0  0  0  0  0  0
    4.3251    3.0530    0.0000 C   0  0  0  0  0  0  0  0  0  0  0  0
    0.8650    2.0353    0.0000 C   0  0  0  0  0  0  0  0  0  0  0  0
    3.4600    3.5109    0.0000 C   0  0  0  0  0  0  0  0  0  0  0  0
    0.8650    3.0021    0.0000 C   0  0  0  0  0  0  0  0  0  0  0  0
    0.0000    1.5265    0.0000 C   0  0  0  0  0  0  0  0  0  0  0  0
    4.3251    4.0706    0.0000 O   0  0  0  0  0  0  0  0  0  0  0  0
  2  1  2  0  0  0  0 
  1  3  1  0  0  0  0 
  4  2  1  0  0  0  0 
  2  5  1  0  0  0  0 
  3  6  2  0  0  0  0 
  7  4  2  0  0  0  0 
  4  8  1  0  0  0  0 
  5  9  1  0  0  0  0 
  5 10  1  0  0  0  0 
  6  7  1  0  0  0  0 
  7 11  1  0  0  0  0 
  8 12  2  0  0  0  0 
 11 13  1  0  0  0  0 
 11 14  1  0  0  0  0 
 12 15  2  0  0  0  0 
M  END
> <Name>
Benzene, 1,3-bis(1-methylethyl)-2-isocyanato-

> <Source>
NIST2DMolFile

> <Tox>
2.158

> <CAS>
28178-42-9

$$$$

  CDK

 14 14  0  0  0  0  0  0  0  0999 V2000
    1.4819   -0.5194    0.0000 C   0  0  0  0  0  0  0  0  0  0  0  0
    2.1963   -0.1069    0.0000 C   0  0  0  0  0  0  0  0  0  0  0  0
    0.7674   -0.1069    0.0000 C   0  0  0  0  0  0  0  0  0  0  0  0
    2.1963    0.7181    0.0000 C   0  0  0  0  0  0  0  0  0  0  0  0
    0.7674    0.7181    0.0000 C   0  0  0  0  0  0  0  0  0  0  0  0
    0.0529   -0.5194    0.0000 N   0  0  0  0  0  0  0  0  0  0  0  0
    2.9108    1.1306    0.0000 Cl  0  0  0  0  0  0  0  0  0  0  0  0
    1.4819    1.1306    0.0000 C   0  0  0  0  0  0  0  0  0  0  0  0
    0.0529    1.1306    0.0000 C   0  0  0  0  0  0  0  0  0  0  0  0
   -0.6615   -0.1069    0.0000 C   0  0  0  0  0  0  0  0  0  0  0  0
   -0.6615    0.7181    0.0000 S   0  0  0  0  0  0  0  0  0  0  0  0
   -1.3760   -0.5194    0.0000 N   0  0  0  0  0  0  0  0  0  0  0  0
   -1.3760   -1.3444    0.0000 C   0  0  0  0  0  0  0  0  0  0  0  0
   -2.0905   -0.1069    0.0000 C   0  0  0  0  0  0  0  0  0  0  0  0
  1  2  1  0  0  0  0 
  1  3  2  0  0  0  0 
  2  4  2  0  0  0  0 
  5  3  1  0  0  0  0 
  3  6  1  0  0  0  0 
  4  7  1  0  0  0  0 
  4  8  1  0  0  0  0 
  8  5  2  0  0  0  0 
  5  9  1  0  0  0  0 
  6 10  1  0  0  0  0 
 10 11  2  0  0  0  0 
 10 12  1  0  0  0  0 
 12 13  1  0  0  0  0 
 12 14  1  0  0  0  0 
M  END
> <Name>
Thiourea, N'-(4-chloro-2-methylphenyl)-N,N-dimethyl- (9CI)

> <Source>
Smiles

> <Tox>
1.961

> <CAS>
28217-97-2

$$$$

  CDK

 20 24  0  0  0  0  0  0  0  0999 V2000
   -3.4263    1.6896   -0.6596 Cl  0  0  0  0  0  0  0  0  0  0  0  0
   -2.2098    0.5381   -0.1002 C   0  0  0  0  0  0  0  0  0  0  0  0
   -2.4815   -0.0325    1.3541 C   0  0  0  0  0  0  0  0  0  0  0  0
   -1.8894   -0.6189   -1.0953 C   0  0  0  0  0  0  0  0  0  0  0  0
   -0.8273    1.0396   -0.0289 C   0  0  0  0  0  0  0  0  0  0  0  0
   -1.5567   -1.2829    1.3803 C   0  0  0  0  0  0  0  0  0  0  0  0
   -3.8266   -0.6162    1.9131 C   0  0  0  0  0  0  0  0  0  0  0  0
   -3.1690   -1.5984   -1.8046 Cl  0  0  0  0  0  0  0  0  0  0  0  0
   -1.2193   -0.1545   -2.6907 Cl  0  0  0  0  0  0  0  0  0  0  0  0
   -0.8948   -1.2245   -0.0596 C   0  0  0  0  0  0  0  0  0  0  0  0
   -0.3458    2.6346    0.0443 Cl  0  0  0  0  0  0  0  0  0  0  0  0
   -0.0227   -0.0387   -0.0029 C   0  0  0  0  0  0  0  0  0  0  0  0
   -2.5263   -2.3814    1.9442 C   0  0  0  0  0  0  0  0  0  0  0  0
   -3.6643   -0.8763    3.4468 C   0  0  0  0  0  0  0  0  0  0  0  0
   -3.9445   -2.0716    1.4492 C   0  0  0  0  0  0  0  0  0  0  0  0
   -0.1222   -2.7330   -0.5561 Cl  0  0  0  0  0  0  0  0  0  0  0  0
    1.6407   -0.0260    0.1091 Cl  0  0  0  0  0  0  0  0  0  0  0  0
   -2.7536   -2.1156    3.4691 C   0  0  0  0  0  0  0  0  0  0  0  0
   -2.3938   -0.8852    4.1149 O   0  0  0  0  0  0  0  0  0  0  0  0
   -5.0126   -2.8356    2.0282 O   0  0  0  0  0  0  0  0  0  0  0  0
  1  2  1  0  0  0  0 
  3  2  1  0  0  0  0 
  2  4  1  0  0  0  0 
  2  5  1  0  0  0  0 
  3  6  1  0  0  0  0 
  3  7  1  0  0  0  0 
  8  4  1  0  0  0  0 
  9  4  1  0  0  0  0 
 10  4  1  0  0  0  0 
 11  5  1  0  0  0  0 
  5 12  2  0  0  0  0 
  6 13  1  0  0  0  0 
  6 10  1  0  0  0  0 
  7 14  1  0  0  0  0 
  7 15  1  0  0  0  0 
 16 10  1  0  0  0  0 
 10 12  1  0  0  0  0 
 17 12  1  0  0  0  0 
 13 18  1  0  0  0  0 
 13 15  1  0  0  0  0 
 19 14  1  0  0  0  0 
 14 18  1  0  0  0  0 
 20 15  1  0  0  0  0 
 19 18  1  0  0  0  0 
M  END
> <Name>
1,4:5,8-Dimethanonaphthalen-9-ol, 1,2,3,4,10,10-hexachloro-6,7-epoxy-1,4,4a,5,6,7,8,8a-octahydro-

> <Source>
Chemidplus3DMolFile

> <Tox>
5.520

> <CAS>
28548-09-6

$$$$

  CDK

 16 17  0  0  0  0  0  0  0  0999 V2000
    4.2494    2.3997    0.0000 C   0  0  0  0  0  0  0  0  0  0  0  0
    3.4495    1.7997    0.0000 C   0  0  0  0  0  0  0  0  0  0  0  0
    5.1992    2.0497    0.0000 C   0  0  0  0  0  0  0  0  0  0  0  0
    4.2494    3.3495    0.0000 C   0  0  0  0  0  0  0  0  0  0  0  0
    2.4996    2.1997    0.0000 N   0  0  0  0  0  0  0  0  0  0  0  0
    3.6495    0.7999    0.0000 O   0  0  0  0  0  0  0  0  0  0  0  0
    5.7992    2.8996    0.0000 O   0  0  0  0  0  0  0  0  0  0  0  0
    5.4492    1.0998    0.0000 C   0  0  0  0  0  0  0  0  0  0  0  0
    5.1992    3.6995    0.0000 C   0  0  0  0  0  0  0  0  0  0  0  0
    1.6998    1.5998    0.0000 C   0  0  0  0  0  0  0  0  0  0  0  0
    5.4492    4.6493    0.0000 C   0  0  0  0  0  0  0  0  0  0  0  0
    1.7997    0.5999    0.0000 C   0  0  0  0  0  0  0  0  0  0  0  0
    0.7999    1.9997    0.0000 C   0  0  0  0  0  0  0  0  0  0  0  0
    0.9999    0.0000    0.0000 C   0  0  0  0  0  0  0  0  0  0  0  0
    0.0000    1.4498    0.0000 C   0  0  0  0  0  0  0  0  0  0  0  0
    0.1000    0.4499    0.0000 C   0  0  0  0  0  0  0  0  0  0  0  0
  1  2  1  0  0  0  0 
  1  3  2  0  0  0  0 
  4  1  1  0  0  0  0 
  2  5  1  0  0  0  0 
  2  6  2  0  0  0  0 
  3  7  1  0  0  0  0 
  3  8  1  0  0  0  0 
  9  4  2  0  0  0  0 
  5 10  1  0  0  0  0 
  7  9  1  0  0  0  0 
  9 11  1  0  0  0  0 
 12 10  1  0  0  0  0 
 10 13  2  0  0  0  0 
 14 12  2  0  0  0  0 
 13 15  1  0  0  0  0 
 16 14  1  0  0  0  0 
 15 16  2  0  0  0  0 
M  END
> <Name>
3-Furancarboxamide, 2,5-dimethyl-N-phenyl- (9CI)

> <Source>
NIST2DMolFile

> <Tox>
3.527

> <CAS>
28562-70-1

$$$$

  CDK

 11 11  0  0  0  0  0  0  0  0999 V2000
    3.3296    0.3637    0.2491 C   0  0  0  0  0  0  0  0  0  0  0  0
    1.8727    0.2102    0.0165 C   0  0  0  0  0  0  0  0  0  0  0  0
    4.0996   -0.5663    0.3374 O   0  0  0  0  0  0  0  0  0  0  0  0
    1.0784    1.3570   -0.0670 C   0  0  0  0  0  0  0  0  0  0  0  0
    1.2831   -1.0469   -0.1192 C   0  0  0  0  0  0  0  0  0  0  0  0
   -0.2877    1.2465   -0.2840 C   0  0  0  0  0  0  0  0  0  0  0  0
   -0.0857   -1.1567   -0.3364 C   0  0  0  0  0  0  0  0  0  0  0  0
   -0.8788   -0.0122   -0.4205 C   0  0  0  0  0  0  0  0  0  0  0  0
   -2.3507   -0.1265   -0.6504 C   0  0  0  0  0  0  0  0  0  0  0  0
   -3.1156   -0.0310    0.6635 C   0  0  0  0  0  0  0  0  0  0  0  0
   -4.6073   -0.1333    0.4399 C   0  0  0  0  0  0  0  0  0  0  0  0
  1  2  1  0  0  0  0 
  1  3  2  0  0  0  0 
  2  4  1  0  0  0  0 
  2  5  2  0  0  0  0 
  4  6  2  0  0  0  0 
  7  5  1  0  0  0  0 
  6  8  1  0  0  0  0 
  8  7  2  0  0  0  0 
  8  9  1  0  0  0  0 
  9 10  1  0  0  0  0 
 10 11  1  0  0  0  0 
M  END
> <Name>
Benzaldehyde, 4-propyl-

> <Source>
DougDB3DMolFile

> <Tox>
1.967

> <CAS>
28785-06-0

$$$$

  CDK

 17 19  0  0  0  0  0  0  0  0999 V2000
    2.5587    4.7507   -1.1701 O   0  0  0  0  0  0  0  0  0  0  0  0
    3.0227    4.1827    0.0804 C   0  0  0  0  0  0  0  0  0  0  0  0
    1.6853    3.8917   -1.7818 C   0  0  0  0  0  0  0  0  0  0  0  0
    1.8631    3.2838    0.5332 C   0  0  0  0  0  0  0  0  0  0  0  0
    3.4789    5.2237    1.0679 C   0  0  0  0  0  0  0  0  0  0  0  0
    1.1980    4.0481   -2.8852 O   0  0  0  0  0  0  0  0  0  0  0  0
    1.4355    2.7892   -0.8207 C   0  0  0  0  0  0  0  0  0  0  0  0
    2.3028    2.1214    1.4387 C   0  0  0  0  0  0  0  0  0  0  0  0
    0.6932    4.0667    1.1693 C   0  0  0  0  0  0  0  0  0  0  0  0
    2.9437    6.5200    1.2441 C   0  0  0  0  0  0  0  0  0  0  0  0
    4.5007    5.1009    1.9780 C   0  0  0  0  0  0  0  0  0  0  0  0
    1.0325    1.5366   -1.0944 C   0  0  0  0  0  0  0  0  0  0  0  0
    1.2652    0.9980    1.4242 C   0  0  0  0  0  0  0  0  0  0  0  0
    3.6778    7.1002    2.2524 C   0  0  0  0  0  0  0  0  0  0  0  0
    4.6289    6.2417    2.7051 O   0  0  0  0  0  0  0  0  0  0  0  0
    0.9806    0.4914    0.0045 C   0  0  0  0  0  0  0  0  0  0  0  0
    0.6708    1.0088   -2.4543 C   0  0  0  0  0  0  0  0  0  0  0  0
  1  2  1  0  0  0  0 
  1  3  1  0  0  0  0 
  4  2  1  0  0  0  0 
  2  5  1  0  0  0  0 
  6  3  2  0  0  0  0 
  7  3  1  0  0  0  0 
  4  8  1  0  0  0  0 
  4  7  1  0  0  0  0 
  4  9  1  0  0  0  0 
  5 10  1  0  0  0  0 
  5 11  2  0  0  0  0 
  7 12  2  0  0  0  0 
  8 13  1  0  0  0  0 
 10 14  2  0  0  0  0 
 15 11  1  0  0  0  0 
 12 16  1  0  0  0  0 
 12 17  1  0  0  0  0 
 13 16  1  0  0  0  0 
 15 14  1  0  0  0  0 
M  END
> <Name>
1(3H)-Isobenzofuranone, 3-(3-furanyl)-3a,4,5,6-tetrahydro-3a,7-dimethyl-, (3R-cis)- (9CI)

> <Source>
Chemidplus3DMolFile

> <Tox>
2.928

> <CAS>
28808-62-0

$$$$

  CDK

 10  9  0  0  0  0  0  0  0  0999 V2000
   -1.8259    1.1570    0.0000 O   0  0  0  0  0  0  0  0  0  0  0  0
   -1.0688    0.8292    0.0000 N   0  0  0  0  0  0  0  0  0  0  0  0
   -0.9742    0.0096    0.0000 N   0  0  0  0  0  0  0  0  0  0  0  0
   -1.6366   -0.4821    0.0000 C   0  0  0  0  0  0  0  0  0  0  0  0
   -0.2171   -0.3182    0.0000 C   0  0  0  0  0  0  0  0  0  0  0  0
   -0.1225   -1.1377    0.0000 O   0  0  0  0  0  0  0  0  0  0  0  0
    0.4453    0.1736    0.0000 N   0  0  0  0  0  0  0  0  0  0  0  0
    1.2024   -0.1543    0.0000 C   0  0  0  0  0  0  0  0  0  0  0  0
    1.2970   -0.9738    0.0000 O   0  0  0  0  0  0  0  0  0  0  0  0
    1.8648    0.3375    0.0000 C   0  0  0  0  0  0  0  0  0  0  0  0
  1  2  2  0  0  0  0 
  2  3  1  0  0  0  0 
  3  4  1  0  0  0  0 
  3  5  1  0  0  0  0 
  5  6  2  0  0  0  0 
  5  7  1  0  0  0  0 
  7  8  1  0  0  0  0 
  8  9  2  0  0  0  0 
  8 10  1  0  0  0  0 
M  END
> <Name>
Urea, 3-acetyl-1-methyl-1-nitroso-

> <Source>
Smiles

> <Tox>
2.861

> <CAS>
28895-91-2

$$$$

  CDK

 19 21  0  0  0  0  0  0  0  0999 V2000
   -3.0310    1.8216    0.0000 O   0  0  0  0  0  0  0  0  0  0  0  0
   -2.2094    1.8962    0.0000 C   0  0  0  0  0  0  0  0  0  0  0  0
   -1.8632    2.6451    0.0000 O   0  0  0  0  0  0  0  0  0  0  0  0
   -1.7340    1.2220    0.0000 C   0  0  0  0  0  0  0  0  0  0  0  0
   -0.9493    0.9671    0.0000 C   0  0  0  0  0  0  0  0  0  0  0  0
   -2.2189    0.5546    0.0000 C   0  0  0  0  0  0  0  0  0  0  0  0
   -0.9493    0.1421    0.0000 C   0  0  0  0  0  0  0  0  0  0  0  0
   -0.2349    1.3796    0.0000 C   0  0  0  0  0  0  0  0  0  0  0  0
   -1.7340   -0.1129    0.0000 C   0  0  0  0  0  0  0  0  0  0  0  0
   -0.2349   -0.2704    0.0000 C   0  0  0  0  0  0  0  0  0  0  0  0
    0.4796    0.9671    0.0000 C   0  0  0  0  0  0  0  0  0  0  0  0
    0.4796    0.1421    0.0000 C   0  0  0  0  0  0  0  0  0  0  0  0
    1.1941    1.3796    0.0000 Cl  0  0  0  0  0  0  0  0  0  0  0  0
    1.1941   -0.2704    0.0000 C   0  0  0  0  0  0  0  0  0  0  0  0
    0.7283   -0.9513    0.0000 C   0  0  0  0  0  0  0  0  0  0  0  0
    2.0167   -0.3334    0.0000 C   0  0  0  0  0  0  0  0  0  0  0  0
    1.0850   -1.6952    0.0000 C   0  0  0  0  0  0  0  0  0  0  0  0
    2.3734   -1.0773    0.0000 C   0  0  0  0  0  0  0  0  0  0  0  0
    1.9076   -1.7582    0.0000 C   0  0  0  0  0  0  0  0  0  0  0  0
  1  2  2  0  0  0  0 
  2  3  1  0  0  0  0 
  2  4  1  0  0  0  0 
  4  5  1  0  0  0  0 
  4  6  1  0  0  0  0 
  5  7  1  0  0  0  0 
  5  8  2  0  0  0  0 
  9  6  1  0  0  0  0 
  7 10  2  0  0  0  0 
  7  9  1  0  0  0  0 
 11  8  1  0  0  0  0 
 10 12  1  0  0  0  0 
 12 11  2  0  0  0  0 
 11 13  1  0  0  0  0 
 12 14  1  0  0  0  0 
 14 15  1  0  0  0  0 
 14 16  1  0  0  0  0 
 15 17  1  0  0  0  0 
 18 16  1  0  0  0  0 
 17 19  1  0  0  0  0 
 19 18  1  0  0  0  0 
M  END
> <Name>
1H-Indene-1-carboxylic acid, 6-chloro-5-cyclohexyl-2,3-dihydro-, (+-)- (9CI)

> <Source>
Smiles

> <Tox>
3.832

> <CAS>
28968-07-2

$$$$

  CDK

 19 21  0  0  0  0  0  0  0  0999 V2000
   -3.1086    1.7423    0.0000 O   0  0  0  0  0  0  0  0  0  0  0  0
   -2.2869    1.8169    0.0000 C   0  0  0  0  0  0  0  0  0  0  0  0
   -1.9407    2.5658    0.0000 O   0  0  0  0  0  0  0  0  0  0  0  0
   -1.8115    1.1427    0.0000 C   0  0  0  0  0  0  0  0  0  0  0  0
   -1.0269    0.8878    0.0000 C   0  0  0  0  0  0  0  0  0  0  0  0
   -2.2964    0.4753    0.0000 C   0  0  0  0  0  0  0  0  0  0  0  0
   -1.0269    0.0628    0.0000 C   0  0  0  0  0  0  0  0  0  0  0  0
   -0.3124    1.3003    0.0000 C   0  0  0  0  0  0  0  0  0  0  0  0
   -1.8115   -0.1922    0.0000 C   0  0  0  0  0  0  0  0  0  0  0  0
   -0.3124   -0.3497    0.0000 C   0  0  0  0  0  0  0  0  0  0  0  0
    0.4020    0.8878    0.0000 C   0  0  0  0  0  0  0  0  0  0  0  0
    0.4020    0.0628    0.0000 C   0  0  0  0  0  0  0  0  0  0  0  0
    1.1165    1.3003    0.0000 N   0  0  0  0  0  0  0  0  0  0  0  0
    1.1165   -0.3497    0.0000 C   0  0  0  0  0  0  0  0  0  0  0  0
    0.6507   -1.0306    0.0000 C   0  0  0  0  0  0  0  0  0  0  0  0
    1.9391   -0.4127    0.0000 C   0  0  0  0  0  0  0  0  0  0  0  0
    1.0075   -1.7745    0.0000 C   0  0  0  0  0  0  0  0  0  0  0  0
    2.2959   -1.1566    0.0000 C   0  0  0  0  0  0  0  0  0  0  0  0
    1.8300   -1.8375    0.0000 C   0  0  0  0  0  0  0  0  0  0  0  0
  1  2  2  0  0  0  0 
  2  3  1  0  0  0  0 
  2  4  1  0  0  0  0 
  4  5  1  0  0  0  0 
  4  6  1  0  0  0  0 
  5  7  1  0  0  0  0 
  5  8  2  0  0  0  0 
  9  6  1  0  0  0  0 
  7 10  2  0  0  0  0 
  7  9  1  0  0  0  0 
 11  8  1  0  0  0  0 
 10 12  1  0  0  0  0 
 12 11  2  0  0  0  0 
 11 13  1  0  0  0  0 
 12 14  1  0  0  0  0 
 14 15  1  0  0  0  0 
 14 16  1  0  0  0  0 
 15 17  1  0  0  0  0 
 18 16  1  0  0  0  0 
 17 19  1  0  0  0  0 
 19 18  1  0  0  0  0 
M  END
> <Name>
1-Indancarboxylic acid, 6-amino-5-cyclohexyl-, (+-)-

> <Source>
Smiles

> <Tox>
3.681

> <CAS>
28998-47-2

$$$$

  CDK

 18 20  0  0  0  0  0  0  0  0999 V2000
    0.0000    0.0000    0.0000 Cl  0  0  0  0  0  0  0  0  0  0  0  0
    0.0600    0.0400    1.7000 C   0  0  0  0  0  0  0  0  0  0  0  0
   -0.3600   -1.0600    2.4600 C   0  0  0  0  0  0  0  0  0  0  0  0
    0.5600    1.1800    2.3600 C   0  0  0  0  0  0  0  0  0  0  0  0
   -0.3200   -1.0200    3.8600 C   0  0  0  0  0  0  0  0  0  0  0  0
    0.6200    1.2200    3.7600 C   0  0  0  0  0  0  0  0  0  0  0  0
    0.1800    0.1200    4.5200 C   0  0  0  0  0  0  0  0  0  0  0  0
    0.2400    0.1800    6.4000 Si  0  0  0  0  0  0  0  0  0  0  0  0
   -0.3200    1.6200    6.9400 O   0  0  0  0  0  0  0  0  0  0  0  0
   -0.6800   -1.0400    7.0200 O   0  0  0  0  0  0  0  0  0  0  0  0
    1.8000   -0.0200    6.9000 O   0  0  0  0  0  0  0  0  0  0  0  0
   -1.0200    1.8000    8.1800 C   0  0  0  0  0  0  0  0  0  0  0  0
   -0.4000   -1.7200    8.2400 C   0  0  0  0  0  0  0  0  0  0  0  0
    2.3600    0.5600    8.0800 C   0  0  0  0  0  0  0  0  0  0  0  0
   -0.1400    1.6200    9.4400 C   0  0  0  0  0  0  0  0  0  0  0  0
   -0.5800   -0.8600    9.5200 C   0  0  0  0  0  0  0  0  0  0  0  0
    1.8000    0.0000    9.4000 C   0  0  0  0  0  0  0  0  0  0  0  0
    0.3800    0.2600    9.6400 N   0  0  0  0  0  0  0  0  0  0  0  0
  1  2  1  0  0  0  0 
  2  3  2  0  0  0  0 
  2  4  1  0  0  0  0 
  3  5  1  0  0  0  0 
  6  4  2  0  0  0  0 
  5  7  2  0  0  0  0 
  7  6  1  0  0  0  0 
  7  8  1  0  0  0  0 
  8  9  1  0  0  0  0 
  8 10  1  0  0  0  0 
  8 11  1  0  0  0  0 
 12  9  1  0  0  0  0 
 10 13  1  0  0  0  0 
 14 11  1  0  0  0  0 
 15 12  1  0  0  0  0 
 13 16  1  0  0  0  0 
 17 14  1  0  0  0  0 
 15 18  1  0  0  0  0 
 18 16  1  0  0  0  0 
 18 17  1  0  0  0  0 
M  END
> <Name>
2,8,9-Trioxa-5-aza-1-silabicyclo(3.3.3)undecane, 1-(p-chlorophenyl)-

> <Source>
NIH3DMolFile

> <Tox>
2.740

> <CAS>
29025-67-0

$$$$

  CDK

 16 18  0  0  0  0  0  0  0  0999 V2000
    0.0000    0.0000    0.0000 C   0  0  0  0  0  0  0  0  0  0  0  0
   -0.4400   -1.3400    0.5600 C   0  0  0  0  0  0  0  0  0  0  0  0
   -1.1000   -2.2000   -0.5400 C   0  0  0  0  0  0  0  0  0  0  0  0
   -1.4200   -1.1000    1.5800 O   0  0  0  0  0  0  0  0  0  0  0  0
   -2.5000   -1.6200   -0.4800 C   0  0  0  0  0  0  0  0  0  0  0  0
   -2.6600   -1.3000    0.9400 N   0  0  0  0  0  0  0  0  0  0  0  0
   -3.5000   -2.5000   -0.9800 O   0  0  0  0  0  0  0  0  0  0  0  0
   -3.9400   -1.2400    1.5200 C   0  0  0  0  0  0  0  0  0  0  0  0
   -4.8000   -2.3200   -0.6000 C   0  0  0  0  0  0  0  0  0  0  0  0
   -4.0200   -0.8800    2.6600 O   0  0  0  0  0  0  0  0  0  0  0  0
   -5.0800   -1.6800    0.6400 C   0  0  0  0  0  0  0  0  0  0  0  0
   -5.8400   -2.7800   -1.4000 C   0  0  0  0  0  0  0  0  0  0  0  0
   -6.4000   -1.4800    1.0400 C   0  0  0  0  0  0  0  0  0  0  0  0
   -7.1600   -2.5800   -1.0000 C   0  0  0  0  0  0  0  0  0  0  0  0
   -7.4600   -1.9200    0.2200 C   0  0  0  0  0  0  0  0  0  0  0  0
   -9.0800   -1.6800    0.7000 Cl  0  0  0  0  0  0  0  0  0  0  0  0
  1  2  1  0  0  0  0 
  2  3  1  0  0  0  0 
  2  4  1  0  0  0  0 
  3  5  1  0  0  0  0 
  6  4  1  0  0  0  0 
  5  6  1  0  0  0  0 
  5  7  1  0  0  0  0 
  6  8  1  0  0  0  0 
  7  9  1  0  0  0  0 
  8 10  2  0  0  0  0 
  8 11  1  0  0  0  0 
  9 11  2  0  0  0  0 
  9 12  1  0  0  0  0 
 11 13  1  0  0  0  0 
 14 12  2  0  0  0  0 
 13 15  2  0  0  0  0 
 15 14  1  0  0  0  0 
 15 16  1  0  0  0  0 
M  END
> <Name>
2H,9H-Isoxazolo(3,2-b)(1,3)benzoxacin-9-one, 7-chloro-3,3a-dihydro-2-methyl-

> <Source>
NIH3DMolFile

> <Tox>
2.315

> <CAS>
29053-27-8

$$$$

  CDK

 22 23  0  0  0  0  0  0  0  0999 V2000
   -0.9928    8.2436    5.2996 Cl  0  0  0  0  0  0  0  0  0  0  0  0
   -2.1002    6.9698    4.9637 C   0  0  0  0  0  0  0  0  0  0  0  0
   -1.6281    5.6813    4.7130 C   0  0  0  0  0  0  0  0  0  0  0  0
   -3.4711    7.2267    4.9417 C   0  0  0  0  0  0  0  0  0  0  0  0
   -2.5387    4.6811    4.4465 C   0  0  0  0  0  0  0  0  0  0  0  0
   -4.3698    6.1954    4.6693 C   0  0  0  0  0  0  0  0  0  0  0  0
   -2.0045    3.2766    4.1754 C   0  0  0  0  0  0  0  0  0  0  0  0
   -3.8978    4.9071    4.4186 C   0  0  0  0  0  0  0  0  0  0  0  0
   -2.2769    2.8571    2.7077 C   0  0  0  0  0  0  0  0  0  0  0  0
   -2.4658    2.1952    5.2115 C   0  0  0  0  0  0  0  0  0  0  0  0
   -4.7898    3.9110    4.1569 O   0  0  0  0  0  0  0  0  0  0  0  0
   -1.6419    3.7619    1.7499 N   0  0  0  0  0  0  0  0  0  0  0  0
   -2.0935    2.5286    6.6753 C   0  0  0  0  0  0  0  0  0  0  0  0
   -1.9855    0.7729    4.8906 C   0  0  0  0  0  0  0  0  0  0  0  0
   -6.0771    4.0189    4.7611 C   0  0  0  0  0  0  0  0  0  0  0  0
   -2.0069    3.3935    0.3748 C   0  0  0  0  0  0  0  0  0  0  0  0
   -0.1835    3.7608    1.9308 C   0  0  0  0  0  0  0  0  0  0  0  0
   -0.5938    2.6221    6.9211 C   0  0  0  0  0  0  0  0  0  0  0  0
   -6.6318    2.6293    4.9912 C   0  0  0  0  0  0  0  0  0  0  0  0
   -1.3906    4.3602   -0.6377 C   0  0  0  0  0  0  0  0  0  0  0  0
    0.4925    4.7394    0.9692 C   0  0  0  0  0  0  0  0  0  0  0  0
    0.1234    4.4382   -0.4790 C   0  0  0  0  0  0  0  0  0  0  0  0
  1  2  1  0  0  0  0 
  3  2  2  0  0  0  0 
  2  4  1  0  0  0  0 
  5  3  1  0  0  0  0 
  6  4  2  0  0  0  0 
  7  5  1  0  0  0  0 
  5  8  2  0  0  0  0 
  8  6  1  0  0  0  0 
  7  9  1  0  0  0  0 
  7 10  1  0  0  0  0 
 11  8  1  0  0  0  0 
 12  9  1  0  0  0  0 
 10 13  1  0  0  0  0 
 10 14  1  0  0  0  0 
 11 15  1  0  0  0  0 
 12 16  1  0  0  0  0 
 12 17  1  0  0  0  0 
 13 18  1  0  0  0  0 
 15 19  1  0  0  0  0 
 16 20  1  0  0  0  0 
 17 21  1  0  0  0  0 
 20 22  1  0  0  0  0 
 21 22  1  0  0  0  0 
M  END
> <Name>
Piperidine, 1-(beta-sec-butyl-5-chloro-2-ethoxyphenethyl)-

> <Source>
Chemidplus3DMolFile

> <Tox>
2.862

> <CAS>
29122-60-9

$$$$

  CDK

 15 14  0  0  0  0  0  0  0  0999 V2000
   -3.9203   -3.0949    1.0778 S   0  0  0  0  0  0  0  0  0  0  0  0
   -5.2325   -3.7023    2.6265 P   0  0  0  0  0  0  0  0  0  0  0  0
   -4.8917   -1.9547    0.0557 C   0  0  0  0  0  0  0  0  0  0  0  0
   -6.0688   -2.3148    3.7247 S   0  0  0  0  0  0  0  0  0  0  0  0
   -6.3550   -4.7087    2.0053 O   0  0  0  0  0  0  0  0  0  0  0  0
   -4.2482   -4.8405    3.6389 C   0  0  0  0  0  0  0  0  0  0  0  0
   -6.1165   -2.6510   -0.5087 C   0  0  0  0  0  0  0  0  0  0  0  0
   -7.2430   -5.4437    2.8281 C   0  0  0  0  0  0  0  0  0  0  0  0
   -6.0985   -3.8517   -0.7940 O   0  0  0  0  0  0  0  0  0  0  0  0
   -7.2590   -1.8295   -0.7056 N   0  0  0  0  0  0  0  0  0  0  0  0
   -7.1575   -0.4018   -0.9925 C   0  0  0  0  0  0  0  0  0  0  0  0
   -8.5873   -2.3385   -0.6375 C   0  0  0  0  0  0  0  0  0  0  0  0
   -8.6409   -3.6689   -0.3248 O   0  0  0  0  0  0  0  0  0  0  0  0
   -9.5942   -1.6505   -0.8037 O   0  0  0  0  0  0  0  0  0  0  0  0
   -9.9491   -4.2379   -0.1966 C   0  0  0  0  0  0  0  0  0  0  0  0
  1  2  1  0  0  0  0 
  1  3  1  0  0  0  0 
  4  2  2  0  0  0  0 
  2  5  1  0  0  0  0 
  2  6  1  0  0  0  0 
  3  7  1  0  0  0  0 
  5  8  1  0  0  0  0 
  9  7  2  0  0  0  0 
 10  7  1  0  0  0  0 
 10 11  1  0  0  0  0 
 10 12  1  0  0  0  0 
 13 12  1  0  0  0  0 
 14 12  2  0  0  0  0 
 13 15  1  0  0  0  0 
M  END
> <Name>
Phosphonodithioic acid, methyl-, S-((N-methoxycarbonyl)-N-methylcarbamoyl) methyl O-methyl ester

> <Source>
Chemidplus3DMolFile

> <Tox>
3.678

> <CAS>
29173-31-7

$$$$

  CDK

  5  4  0  0  0  0  0  0  0  0999 V2000
    1.9728    0.6154   -0.0018 C   0  0  0  0  0  0  0  0  0  0  0  0
    0.4838    0.7098    0.0012 C   0  0  0  0  0  0  0  0  0  0  0  0
    2.3904   -0.7299    0.0020 O   0  0  0  0  0  0  0  0  0  0  0  0
   -0.3530   -0.3264   -0.0028 C   0  0  0  0  0  0  0  0  0  0  0  0
   -2.0226   -0.0637    0.0005 Cl  0  0  0  0  0  0  0  0  0  0  0  0
  1  2  1  0  0  0  0 
  1  3  1  0  0  0  0 
  2  4  2  0  0  0  0 
  4  5  1  0  0  0  0 
M  END
> <Name>
2-Propen-1-ol, 3-chloro-

> <Source>
DougDB3DMolFile

> <Tox>
2.958

> <CAS>
29560-84-7

$$$$

  CDK

 32 34  0  0  0  0  0  0  0  0999 V2000
    9.4981    1.6997    0.0000 C   0  0  0  0  0  0  0  0  0  0  0  0
   10.1980    1.2498    0.0000 C   0  0  0  0  0  0  0  0  0  0  0  0
    8.7483    1.2498    0.0000 C   0  0  0  0  0  0  0  0  0  0  0  0
   10.1980    0.3999    0.0000 C   0  0  0  0  0  0  0  0  0  0  0  0
    8.7483    0.3999    0.0000 C   0  0  0  0  0  0  0  0  0  0  0  0
    8.0484    1.6997    0.0000 C   0  0  0  0  0  0  0  0  0  0  0  0
    9.4981    0.0000    0.0000 C   0  0  0  0  0  0  0  0  0  0  0  0
    7.2985    1.2498    0.0000 C   0  0  0  0  0  0  0  0  0  0  0  0
    8.0484    2.5495    0.0000 O   0  0  0  0  0  0  0  0  0  0  0  0
    6.5487    0.8498    0.0000 N   0  0  0  0  0  0  0  0  0  0  0  0
    7.2985    2.9494    0.0000 C   0  0  0  0  0  0  0  0  0  0  0  0
    6.0488    3.1994    0.0000 C   0  0  0  0  0  0  0  0  0  0  0  0
    6.5987    3.9992    0.0000 O   0  0  0  0  0  0  0  0  0  0  0  0
    6.4487    2.4495    0.0000 O   0  0  0  0  0  0  0  0  0  0  0  0
    4.8490    2.7994    0.0000 C   0  0  0  0  0  0  0  0  0  0  0  0
    5.3489    3.5993    0.0000 C   0  0  0  0  0  0  0  0  0  0  0  0
    4.0992    3.8492    0.0000 C   0  0  0  0  0  0  0  0  0  0  0  0
    4.5491    1.9996    0.0000 O   0  0  0  0  0  0  0  0  0  0  0  0
    4.6491    4.0492    0.0000 C   0  0  0  0  0  0  0  0  0  0  0  0
    3.3993    3.3993    0.0000 O   0  0  0  0  0  0  0  0  0  0  0  0
    4.6491    4.8990    0.0000 O   0  0  0  0  0  0  0  0  0  0  0  0
    3.7992    4.8990    0.0000 C   0  0  0  0  0  0  0  0  0  0  0  0
    2.5495    5.1990    0.0000 C   0  0  0  0  0  0  0  0  0  0  0  0
    3.1494    5.9988    0.0000 O   0  0  0  0  0  0  0  0  0  0  0  0
    2.5495    4.3491    0.0000 O   0  0  0  0  0  0  0  0  0  0  0  0
    1.2997    4.8990    0.0000 C   0  0  0  0  0  0  0  0  0  0  0  0
    1.8996    5.6489    0.0000 C   0  0  0  0  0  0  0  0  0  0  0  0
    0.9998    4.0992    0.0000 O   0  0  0  0  0  0  0  0  0  0  0  0
    0.6999    5.9988    0.0000 C   0  0  0  0  0  0  0  0  0  0  0  0
    1.8996    6.4987    0.0000 C   0  0  0  0  0  0  0  0  0  0  0  0
    0.0000    6.4987    0.0000 O   0  0  0  0  0  0  0  0  0  0  0  0
    2.6495    6.9486    0.0000 O   0  0  0  0  0  0  0  0  0  0  0  0
  1  2  2  0  0  0  0 
  3  1  1  0  0  0  0 
  2  4  1  0  0  0  0 
  5  3  2  0  0  0  0 
  3  6  1  0  0  0  0 
  4  7  2  0  0  0  0 
  7  5  1  0  0  0  0 
  8  6  1  0  0  0  0 
  6  9  1  0  0  0  0 
 10  8  3  0  0  0  0 
  9 11  1  0  0  0  0 
 11 12  1  0  0  0  0 
 13 11  1  0  0  0  0 
 14 12  1  0  0  0  0 
 12 15  1  0  0  0  0 
 16 13  1  0  0  0  0 
 15 17  1  0  0  0  0 
 18 15  1  0  0  0  0 
 17 16  1  0  0  0  0 
 16 19  1  0  0  0  0 
 20 17  1  0  0  0  0 
 19 21  1  0  0  0  0 
 21 22  1  0  0  0  0 
 22 23  1  0  0  0  0 
 24 22  1  0  0  0  0 
 25 23  1  0  0  0  0 
 23 26  1  0  0  0  0 
 27 24  1  0  0  0  0 
 28 26  1  0  0  0  0 
 26 29  1  0  0  0  0 
 30 27  1  0  0  0  0 
 29 27  1  0  0  0  0 
 31 29  1  0  0  0  0 
 32 30  1  0  0  0  0 
M  END
> <Name>
Benzeneacetonitrile, alpha-((6-O-beta-D-glucopyranosyl-beta-D-glucopyranosyl)oxy)-, (R)- (9CI)

> <Source>
NIST2DMolFile

> <Tox>
3.053

> <CAS>
29883-15-6

$$$$

  CDK

 12 11  0  0  0  0  0  0  0  0999 V2000
    2.3064   -1.3238    0.0000 C   0  0  0  0  0  0  0  0  0  0  0  0
    1.1480   -1.9961    0.0000 C   0  0  0  0  0  0  0  0  0  0  0  0
    3.4544   -1.9961    0.0000 O   0  0  0  0  0  0  0  0  0  0  0  0
    1.1480   -3.3200    0.0000 C   0  0  0  0  0  0  0  0  0  0  0  0
    0.0000   -1.3238    0.0000 O   0  0  0  0  0  0  0  0  0  0  0  0
    4.6024   -1.3238    0.0000 C   0  0  0  0  0  0  0  0  0  0  0  0
    5.7401   -1.9961    0.0000 C   0  0  0  0  0  0  0  0  0  0  0  0
    4.6024   -0.0000    0.0000 C   0  0  0  0  0  0  0  0  0  0  0  0
    6.8881   -1.3238    0.0000 O   0  0  0  0  0  0  0  0  0  0  0  0
    8.0361   -1.9961    0.0000 C   0  0  0  0  0  0  0  0  0  0  0  0
    9.1945   -1.3238    0.0000 C   0  0  0  0  0  0  0  0  0  0  0  0
   10.3425   -1.9961    0.0000 C   0  0  0  0  0  0  0  0  0  0  0  0
  1  2  1  0  0  0  0 
  1  3  1  0  0  0  0 
  2  4  1  0  0  0  0 
  2  5  1  0  0  0  0 
  3  6  1  0  0  0  0 
  6  7  1  0  0  0  0 
  6  8  1  0  0  0  0 
  7  9  1  0  0  0  0 
  9 10  1  0  0  0  0 
 10 11  1  0  0  0  0 
 11 12  1  0  0  0  0 
M  END
> <Name>
2-Propanol, 1-(1-methyl-2-propoxyethoxy)-

> <Source>
DSSTox2DMolFile

> <Tox>
2.073

> <CAS>
29911-27-1

$$$$

  CDK

 13 12  0  0  0  0  0  0  0  0999 V2000
    9.2500   -1.3280    0.0000 C   0  0  0  0  0  0  0  0  0  0  0  0
   10.3933   -1.9863    0.0000 C   0  0  0  0  0  0  0  0  0  0  0  0
    8.0952   -1.9863    0.0000 O   0  0  0  0  0  0  0  0  0  0  0  0
   10.3933   -3.3258    0.0000 C   0  0  0  0  0  0  0  0  0  0  0  0
   11.5481   -1.3280    0.0000 O   0  0  0  0  0  0  0  0  0  0  0  0
    6.9289   -1.3280    0.0000 C   0  0  0  0  0  0  0  0  0  0  0  0
    5.7740   -1.9863    0.0000 C   0  0  0  0  0  0  0  0  0  0  0  0
    6.9289   -0.0000    0.0000 C   0  0  0  0  0  0  0  0  0  0  0  0
    4.6192   -1.3280    0.0000 O   0  0  0  0  0  0  0  0  0  0  0  0
    3.4529   -1.9863    0.0000 C   0  0  0  0  0  0  0  0  0  0  0  0
    2.2981   -1.3280    0.0000 C   0  0  0  0  0  0  0  0  0  0  0  0
    1.1433   -1.9863    0.0000 C   0  0  0  0  0  0  0  0  0  0  0  0
    0.0000   -1.3280    0.0000 C   0  0  0  0  0  0  0  0  0  0  0  0
  1  2  1  0  0  0  0 
  1  3  1  0  0  0  0 
  2  4  1  0  0  0  0 
  2  5  1  0  0  0  0 
  3  6  1  0  0  0  0 
  6  7  1  0  0  0  0 
  6  8  1  0  0  0  0 
  7  9  1  0  0  0  0 
  9 10  1  0  0  0  0 
 10 11  1  0  0  0  0 
 11 12  1  0  0  0  0 
 12 13  1  0  0  0  0 
M  END
> <Name>
2-Propanol, 1-(2-butoxy-1-methylethoxy)-

> <Source>
DSSTox2DMolFile

> <Tox>
2.109

> <CAS>
29911-28-2

$$$$

  CDK

 14 13  0  0  0  0  0  0  0  0999 V2000
   -1.0372    7.6073   -2.2477 S   0  0  0  0  0  0  0  0  0  0  0  0
   -1.4913    5.7349   -3.0925 P   0  0  0  0  0  0  0  0  0  0  0  0
   -2.6288    8.4267   -2.0269 C   0  0  0  0  0  0  0  0  0  0  0  0
   -2.1121    5.9746   -4.5772 O   0  0  0  0  0  0  0  0  0  0  0  0
   -2.4502    4.9940   -2.1955 O   0  0  0  0  0  0  0  0  0  0  0  0
   -0.0316    4.8630   -3.3468 N   0  0  0  0  0  0  0  0  0  0  0  0
   -1.3499    6.7008   -5.5263 C   0  0  0  0  0  0  0  0  0  0  0  0
    0.0075    3.6056   -3.9237 C   0  0  0  0  0  0  0  0  0  0  0  0
   -0.9727    2.9790   -4.3193 O   0  0  0  0  0  0  0  0  0  0  0  0
    1.4086    3.0383   -4.0180 C   0  0  0  0  0  0  0  0  0  0  0  0
    1.4336    1.6504   -4.6569 C   0  0  0  0  0  0  0  0  0  0  0  0
    2.8517    1.0832   -4.7693 C   0  0  0  0  0  0  0  0  0  0  0  0
    2.8413   -0.3159   -5.3853 C   0  0  0  0  0  0  0  0  0  0  0  0
    4.2426   -0.9002   -5.4640 C   0  0  0  0  0  0  0  0  0  0  0  0
  1  2  1  0  0  0  0 
  1  3  1  0  0  0  0 
  2  4  1  0  0  0  0 
  2  5  2  0  0  0  0 
  2  6  1  0  0  0  0 
  4  7  1  0  0  0  0 
  6  8  1  0  0  0  0 
  9  8  2  0  0  0  0 
 10  8  1  0  0  0  0 
 11 10  1  0  0  0  0 
 11 12  1  0  0  0  0 
 12 13  1  0  0  0  0 
 13 14  1  0  0  0  0 
M  END
> <Name>
Phosphoramidothioic acid, (1-oxohexyl)-, O,S-dimethyl ester (9CI)

> <Source>
Chemidplus3DMolFile

> <Tox>
3.981

> <CAS>
30560-29-3

$$$$

  CDK

 21 22  0  0  0  0  0  0  0  0999 V2000
    4.6015   -3.9900    0.0000 C   0  0  0  0  0  0  0  0  0  0  0  0
    5.7622   -4.6637    0.0000 C   0  0  0  0  0  0  0  0  0  0  0  0
    3.4511   -4.6637    0.0000 C   0  0  0  0  0  0  0  0  0  0  0  0
    4.6015   -2.6635    0.0000 C   0  0  0  0  0  0  0  0  0  0  0  0
    5.7622   -5.9902    0.0000 O   0  0  0  0  0  0  0  0  0  0  0  0
    6.9126   -3.9900    0.0000 N   0  0  0  0  0  0  0  0  0  0  0  0
    2.3007   -3.9900    0.0000 C   0  0  0  0  0  0  0  0  0  0  0  0
    3.4511   -2.0002    0.0000 C   0  0  0  0  0  0  0  0  0  0  0  0
    8.0630   -4.6637    0.0000 C   0  0  0  0  0  0  0  0  0  0  0  0
    1.1504   -4.6637    0.0000 O   0  0  0  0  0  0  0  0  0  0  0  0
    2.3007   -2.6635    0.0000 C   0  0  0  0  0  0  0  0  0  0  0  0
    3.4511   -0.6736    0.0000 O   0  0  0  0  0  0  0  0  0  0  0  0
    9.2133   -3.9900    0.0000 C   0  0  0  0  0  0  0  0  0  0  0  0
    8.0630   -5.9902    0.0000 C   0  0  0  0  0  0  0  0  0  0  0  0
    1.1504   -5.9902    0.0000 C   0  0  0  0  0  0  0  0  0  0  0  0
    1.1504   -2.0002    0.0000 O   0  0  0  0  0  0  0  0  0  0  0  0
    4.6015   -0.0000    0.0000 C   0  0  0  0  0  0  0  0  0  0  0  0
   10.3637   -4.6637    0.0000 N   0  0  0  0  0  0  0  0  0  0  0  0
    9.2133   -6.6535    0.0000 C   0  0  0  0  0  0  0  0  0  0  0  0
    0.0000   -2.6635    0.0000 C   0  0  0  0  0  0  0  0  0  0  0  0
   10.3637   -5.9902    0.0000 C   0  0  0  0  0  0  0  0  0  0  0  0
  1  2  1  0  0  0  0 
  1  3  2  0  0  0  0 
  1  4  1  0  0  0  0 
  2  5  2  0  0  0  0 
  2  6  1  0  0  0  0 
  3  7  1  0  0  0  0 
  8  4  2  0  0  0  0 
  6  9  1  0  0  0  0 
  7 10  1  0  0  0  0 
  7 11  2  0  0  0  0 
 11  8  1  0  0  0  0 
  8 12  1  0  0  0  0 
  9 13  1  0  0  0  0 
  9 14  1  0  0  0  0 
 10 15  1  0  0  0  0 
 11 16  1  0  0  0  0 
 12 17  1  0  0  0  0 
 13 18  1  0  0  0  0 
 19 14  1  0  0  0  0 
 16 20  1  0  0  0  0 
 18 21  1  0  0  0  0 
 21 19  1  0  0  0  0 
M  END
> <Name>
(+-)-3,4,5-Trimethoxy-N-3-piperidylbenzamide

> <Source>
DSSTox2DMolFile

> <Tox>
2.147

> <CAS>
30751-05-4

$$$$

  CDK

 11 11  0  0  0  0  0  0  0  0999 V2000
    0.3022    0.9884    0.1303 C   0  0  0  0  0  0  0  0  0  0  0  0
    1.6807    0.9666   -0.1180 C   0  0  0  0  0  0  0  0  0  0  0  0
   -0.4075   -0.2020    0.3760 C   0  0  0  0  0  0  0  0  0  0  0  0
   -0.4071    2.1600    0.1447 O   0  0  0  0  0  0  0  0  0  0  0  0
    2.3633   -0.2486   -0.1290 C   0  0  0  0  0  0  0  0  0  0  0  0
    0.2999   -1.4037    0.3587 C   0  0  0  0  0  0  0  0  0  0  0  0
   -1.8771   -0.2177    0.6481 C   0  0  0  0  0  0  0  0  0  0  0  0
    1.6668   -1.4328    0.1096 C   0  0  0  0  0  0  0  0  0  0  0  0
    3.8247   -0.2660   -0.3959 C   0  0  0  0  0  0  0  0  0  0  0  0
   -2.6727   -0.3733   -0.6419 C   0  0  0  0  0  0  0  0  0  0  0  0
   -4.1590   -0.4176   -0.3684 C   0  0  0  0  0  0  0  0  0  0  0  0
  1  2  1  0  0  0  0 
  1  3  2  0  0  0  0 
  1  4  1  0  0  0  0 
  2  5  2  0  0  0  0 
  6  3  1  0  0  0  0 
  3  7  1  0  0  0  0 
  5  8  1  0  0  0  0 
  5  9  1  0  0  0  0 
  8  6  2  0  0  0  0 
  7 10  1  0  0  0  0 
 10 11  1  0  0  0  0 
M  END
> <Name>
m-Cresol, 6-propyl-

> <Source>
DougDB3DMolFile

> <Tox>
2.313

> <CAS>
31143-55-2

$$$$

  CDK

 13 13  0  0  0  0  0  0  0  0999 V2000
    0.1219   -0.3857    0.0000 O   0  0  0  0  0  0  0  0  0  0  0  0
    0.8417    0.0175    0.0000 C   0  0  0  0  0  0  0  0  0  0  0  0
   -0.4840    0.1742    0.0000 C   0  0  0  0  0  0  0  0  0  0  0  0
    1.5909   -0.3278    0.0000 C   0  0  0  0  0  0  0  0  0  0  0  0
    0.6806    0.8266    0.0000 C   0  0  0  0  0  0  0  0  0  0  0  0
   -0.1387    0.9235    0.0000 C   0  0  0  0  0  0  0  0  0  0  0  0
   -1.2931    0.0131    0.0000 N   0  0  0  0  0  0  0  0  0  0  0  0
    2.2646    0.1484    0.0000 O   0  0  0  0  0  0  0  0  0  0  0  0
    1.6665   -1.1493    0.0000 O   0  0  0  0  0  0  0  0  0  0  0  0
   -1.8371    0.6333    0.0000 C   0  0  0  0  0  0  0  0  0  0  0  0
    2.4158   -1.4946    0.0000 C   0  0  0  0  0  0  0  0  0  0  0  0
   -1.5721    1.4146    0.0000 O   0  0  0  0  0  0  0  0  0  0  0  0
   -2.6463    0.4723    0.0000 C   0  0  0  0  0  0  0  0  0  0  0  0
  1  2  1  0  0  0  0 
  1  3  1  0  0  0  0 
  2  4  1  0  0  0  0 
  2  5  2  0  0  0  0 
  6  3  2  0  0  0  0 
  3  7  1  0  0  0  0 
  4  8  2  0  0  0  0 
  4  9  1  0  0  0  0 
  5  6  1  0  0  0  0 
  7 10  1  0  0  0  0 
  9 11  1  0  0  0  0 
 10 12  2  0  0  0  0 
 10 13  1  0  0  0  0 
M  END
> <Name>
Acetamide, N-(2-methoxycarbonylfuryl)-

> <Source>
Smiles

> <Tox>
2.184

> <CAS>
31230-24-7

$$$$

  CDK

 14 13  0  0  0  0  0  0  0  0999 V2000
   -0.6837   -0.6339   -2.2675 S   0  0  0  0  0  0  0  0  0  0  0  0
   -0.0329   -2.5690   -1.6624 P   0  0  0  0  0  0  0  0  0  0  0  0
   -0.2136    0.4365   -1.0071 C   0  0  0  0  0  0  0  0  0  0  0  0
   -0.1693   -4.0477   -2.9452 S   0  0  0  0  0  0  0  0  0  0  0  0
   -0.7863   -2.9013   -0.2492 O   0  0  0  0  0  0  0  0  0  0  0  0
    1.4836   -2.3951   -1.0749 O   0  0  0  0  0  0  0  0  0  0  0  0
   -0.4353    1.7638   -0.9903 C   0  0  0  0  0  0  0  0  0  0  0  0
   -2.1832   -3.1435   -0.2211 C   0  0  0  0  0  0  0  0  0  0  0  0
    2.5589   -2.0861   -1.9462 C   0  0  0  0  0  0  0  0  0  0  0  0
   -1.2740    2.4733   -2.3594 S   0  0  0  0  0  0  0  0  0  0  0  0
   -0.0334    2.7202    0.1012 C   0  0  0  0  0  0  0  0  0  0  0  0
   -2.6069   -3.4215    1.2054 C   0  0  0  0  0  0  0  0  0  0  0  0
    3.8350   -1.9850   -1.1382 C   0  0  0  0  0  0  0  0  0  0  0  0
    0.1507    2.8573   -3.3927 C   0  0  0  0  0  0  0  0  0  0  0  0
  1  2  1  0  0  0  0 
  1  3  1  0  0  0  0 
  4  2  2  0  0  0  0 
  2  5  1  0  0  0  0 
  2  6  1  0  0  0  0 
  3  7  2  0  0  0  0 
  5  8  1  0  0  0  0 
  6  9  1  0  0  0  0 
 10  7  1  0  0  0  0 
  7 11  1  0  0  0  0 
  8 12  1  0  0  0  0 
  9 13  1  0  0  0  0 
 10 14  1  0  0  0  0 
M  END
> <Name>
Phosphorodithioic acid, O,O-diethyl S-(2-(methylthio)-1-propenyl) ester

> <Source>
Chemidplus3DMolFile

> <Tox>
5.037

> <CAS>
31333-64-9

$$$$

  CDK

 12 12  0  0  0  0  0  0  0  0999 V2000
   -1.5071   -0.3781   -0.3853 C   0  0  0  0  0  0  0  0  0  0  0  0
   -2.3722   -1.0489    0.4791 C   0  0  0  0  0  0  0  0  0  0  0  0
   -1.8169    0.9140   -0.8104 C   0  0  0  0  0  0  0  0  0  0  0  0
   -0.2494   -1.0454   -0.8623 C   0  0  0  0  0  0  0  0  0  0  0  0
   -3.5419   -0.4322    0.9096 C   0  0  0  0  0  0  0  0  0  0  0  0
   -2.9867    1.5273   -0.3762 C   0  0  0  0  0  0  0  0  0  0  0  0
    0.8010   -0.6110   -0.0085 O   0  0  0  0  0  0  0  0  0  0  0  0
   -3.8502    0.8550    0.4824 C   0  0  0  0  0  0  0  0  0  0  0  0
    2.0515   -1.2039   -0.3222 C   0  0  0  0  0  0  0  0  0  0  0  0
    3.1112   -0.5134    0.5438 C   0  0  0  0  0  0  0  0  0  0  0  0
    3.6215    0.5841   -0.2032 O   0  0  0  0  0  0  0  0  0  0  0  0
    4.4950    1.4034    0.5265 C   0  0  0  0  0  0  0  0  0  0  0  0
  1  2  1  0  0  0  0 
  1  3  2  0  0  0  0 
  1  4  1  0  0  0  0 
  2  5  2  0  0  0  0 
  6  3  1  0  0  0  0 
  4  7  1  0  0  0  0 
  5  8  1  0  0  0  0 
  8  6  2  0  0  0  0 
  7  9  1  0  0  0  0 
  9 10  1  0  0  0  0 
 10 11  1  0  0  0  0 
 11 12  1  0  0  0  0 
M  END
> <Name>
Benzene, ((2-methoxyethoxy)methyl)-

> <Source>
DougDB3DMolFile

> <Tox>
1.861

> <CAS>
31600-56-3

$$$$

  CDK

 18 20  0  0  0  0  0  0  0  0999 V2000
   -3.0310    1.8216    0.0000 O   0  0  0  0  0  0  0  0  0  0  0  0
   -2.2094    1.8962    0.0000 C   0  0  0  0  0  0  0  0  0  0  0  0
   -1.8632    2.6451    0.0000 O   0  0  0  0  0  0  0  0  0  0  0  0
   -1.7340    1.2220    0.0000 C   0  0  0  0  0  0  0  0  0  0  0  0
   -0.9493    0.9671    0.0000 C   0  0  0  0  0  0  0  0  0  0  0  0
   -2.2189    0.5546    0.0000 C   0  0  0  0  0  0  0  0  0  0  0  0
   -0.9493    0.1421    0.0000 C   0  0  0  0  0  0  0  0  0  0  0  0
   -0.2349    1.3796    0.0000 C   0  0  0  0  0  0  0  0  0  0  0  0
   -1.7340   -0.1129    0.0000 C   0  0  0  0  0  0  0  0  0  0  0  0
   -0.2349   -0.2704    0.0000 C   0  0  0  0  0  0  0  0  0  0  0  0
    0.4796    0.9671    0.0000 C   0  0  0  0  0  0  0  0  0  0  0  0
    0.4796    0.1421    0.0000 C   0  0  0  0  0  0  0  0  0  0  0  0
    1.1941   -0.2704    0.0000 C   0  0  0  0  0  0  0  0  0  0  0  0
    0.7283   -0.9513    0.0000 C   0  0  0  0  0  0  0  0  0  0  0  0
    2.0167   -0.3334    0.0000 C   0  0  0  0  0  0  0  0  0  0  0  0
    1.0850   -1.6952    0.0000 C   0  0  0  0  0  0  0  0  0  0  0  0
    2.3734   -1.0773    0.0000 C   0  0  0  0  0  0  0  0  0  0  0  0
    1.9076   -1.7582    0.0000 C   0  0  0  0  0  0  0  0  0  0  0  0
  1  2  2  0  0  0  0 
  2  3  1  0  0  0  0 
  2  4  1  0  0  0  0 
  4  5  1  0  0  0  0 
  4  6  1  0  0  0  0 
  5  7  1  0  0  0  0 
  5  8  2  0  0  0  0 
  9  6  1  0  0  0  0 
  7 10  2  0  0  0  0 
  7  9  1  0  0  0  0 
 11  8  1  0  0  0  0 
 10 12  1  0  0  0  0 
 12 11  2  0  0  0  0 
 12 13  1  0  0  0  0 
 13 14  1  0  0  0  0 
 13 15  1  0  0  0  0 
 14 16  1  0  0  0  0 
 17 15  1  0  0  0  0 
 16 18  1  0  0  0  0 
 18 17  1  0  0  0  0 
M  END
> <Name>
1H-Indene-1-carboxylic acid, 5-cyclohexyl-2,3-dihydro-, (S)-

> <Source>
Smiles

> <Tox>
3.026

> <CAS>
31770-74-8

$$$$

  CDK

 21 23  0  0  0  0  0  0  0  0999 V2000
    2.7533    0.0000    0.0000 C   0  0  0  0  0  0  0  0  0  0  0  0
    2.0533    1.2133    0.0000 C   0  0  0  0  0  0  0  0  0  0  0  0
    0.6533    1.2133    0.0000 C   0  0  0  0  0  0  0  0  0  0  0  0
    2.7533    2.4267    0.0000 C   0  0  0  0  0  0  0  0  0  0  0  0
    0.0000    0.0000    0.0000 O   0  0  0  0  0  0  0  0  0  0  0  0
    0.0000    2.4267    0.0000 O   0  0  0  0  0  0  0  0  0  0  0  0
    2.0533    3.6400    0.0000 C   0  0  0  0  0  0  0  0  0  0  0  0
    4.1533    2.4267    0.0000 C   0  0  0  0  0  0  0  0  0  0  0  0
    2.7533    4.8533    0.0000 C   0  0  0  0  0  0  0  0  0  0  0  0
    4.8533    3.6400    0.0000 C   0  0  0  0  0  0  0  0  0  0  0  0
    4.1533    4.8533    0.0000 C   0  0  0  0  0  0  0  0  0  0  0  0
    4.8533    6.0667    0.0000 N   0  0  0  0  0  0  0  0  0  0  0  0
    4.2933    7.3267    0.0000 C   0  0  0  0  0  0  0  0  0  0  0  0
    6.2533    6.2067    0.0000 C   0  0  0  0  0  0  0  0  0  0  0  0
    5.3667    8.2600    0.0000 C   0  0  0  0  0  0  0  0  0  0  0  0
    6.5800    7.5600    0.0000 C   0  0  0  0  0  0  0  0  0  0  0  0
    7.1867    5.1800    0.0000 O   0  0  0  0  0  0  0  0  0  0  0  0
    5.3667    9.6600    0.0000 C   0  0  0  0  0  0  0  0  0  0  0  0
    7.7933    8.2600    0.0000 C   0  0  0  0  0  0  0  0  0  0  0  0
    6.5800   10.3133    0.0000 C   0  0  0  0  0  0  0  0  0  0  0  0
    7.7933    9.6600    0.0000 C   0  0  0  0  0  0  0  0  0  0  0  0
  1  2  1  0  0  0  0 
  2  3  1  0  0  0  0 
  2  4  1  0  0  0  0 
  3  5  1  0  0  0  0 
  3  6  2  0  0  0  0 
  4  7  1  0  0  0  0 
  4  8  2  0  0  0  0 
  7  9  2  0  0  0  0 
 10  8  1  0  0  0  0 
  9 11  1  0  0  0  0 
 11 10  2  0  0  0  0 
 11 12  1  0  0  0  0 
 12 13  1  0  0  0  0 
 12 14  1  0  0  0  0 
 13 15  1  0  0  0  0 
 16 14  1  0  0  0  0 
 14 17  2  0  0  0  0 
 15 18  2  0  0  0  0 
 15 16  1  0  0  0  0 
 19 16  2  0  0  0  0 
 18 20  1  0  0  0  0 
 21 19  1  0  0  0  0 
 20 21  2  0  0  0  0 
M  END
> <Name>
Benzeneacetic acid, 4-(1,3-dihydro-1-oxo-2H-isoindol-2-yl)-alpha-methyl-

> <Source>
IndexNet2DMolFile

> <Tox>
3.525

> <CAS>
31842-01-0

$$$$

  CDK

 24 27  0  0  0  0  0  0  0  0999 V2000
    0.0000    1.3992    0.0000 C   0  0  0  0  0  0  0  0  0  0  0  0
    0.8395    2.5652    0.0000 C   0  0  0  0  0  0  0  0  0  0  0  0
    0.3731    3.8712    0.0000 C   0  0  0  0  0  0  0  0  0  0  0  0
    2.2388    2.5652    0.0000 N   0  0  0  0  0  0  0  0  0  0  0  0
    1.4925    4.7107    0.0000 O   0  0  0  0  0  0  0  0  0  0  0  0
    2.6119    3.9178    0.0000 C   0  0  0  0  0  0  0  0  0  0  0  0
    3.0316    1.4459    0.0000 C   0  0  0  0  0  0  0  0  0  0  0  0
    3.9178    4.4309    0.0000 C   0  0  0  0  0  0  0  0  0  0  0  0
    2.8451    5.7368    0.0000 C   0  0  0  0  0  0  0  0  0  0  0  0
    4.3842    1.3526    0.0000 C   0  0  0  0  0  0  0  0  0  0  0  0
    3.9178    5.8301    0.0000 C   0  0  0  0  0  0  0  0  0  0  0  0
    5.1305    3.7313    0.0000 C   0  0  0  0  0  0  0  0  0  0  0  0
    1.5391    6.2499    0.0000 C   0  0  0  0  0  0  0  0  0  0  0  0
    4.0111    6.4831    0.0000 C   0  0  0  0  0  0  0  0  0  0  0  0
    4.9439    0.0000    0.0000 O   0  0  0  0  0  0  0  0  0  0  0  0
    5.3637    2.3320    0.0000 N   0  0  0  0  0  0  0  0  0  0  0  0
    5.1305    6.5297    0.0000 C   0  0  0  0  0  0  0  0  0  0  0  0
    6.3431    4.4309    0.0000 C   0  0  0  0  0  0  0  0  0  0  0  0
    1.5391    7.7424    0.0000 C   0  0  0  0  0  0  0  0  0  0  0  0
    3.9178    7.8823    0.0000 C   0  0  0  0  0  0  0  0  0  0  0  0
    5.2704    5.8767    0.0000 Cl  0  0  0  0  0  0  0  0  0  0  0  0
    6.3431    5.8301    0.0000 C   0  0  0  0  0  0  0  0  0  0  0  0
    5.1305    7.9289    0.0000 Cl  0  0  0  0  0  0  0  0  0  0  0  0
    2.6585    8.5353    0.0000 C   0  0  0  0  0  0  0  0  0  0  0  0
  1  2  1  0  0  0  0 
  2  3  1  0  0  0  0 
  2  4  1  0  0  0  0 
  3  5  1  0  0  0  0 
  6  4  1  0  0  0  0 
  4  7  1  0  0  0  0 
  5  6  1  0  0  0  0 
  6  8  1  0  0  0  0 
  6  9  1  0  0  0  0 
  7 10  1  0  0  0  0 
 11  8  2  0  0  0  0 
 12  8  1  0  0  0  0 
  9 13  1  0  0  0  0 
  9 14  2  0  0  0  0 
 10 15  2  0  0  0  0 
 10 16  1  0  0  0  0 
 17 11  1  0  0  0  0 
 16 12  1  0  0  0  0 
 12 18  2  0  0  0  0 
 13 19  2  0  0  0  0 
 20 14  1  0  0  0  0 
 14 21  1  0  0  0  0 
 22 17  2  0  0  0  0 
 17 23  1  0  0  0  0 
 18 22  1  0  0  0  0 
 19 24  1  0  0  0  0 
 24 20  2  0  0  0  0 
M  END
> <Name>
Oxazolo(3,2-d)(1,4)benzodiazepin-6(5H)-one, 10-chloro-11b-(2-chlorophenyl)-2,3,7,11b-tetrahydro-3-methyl-

> <Source>
IndexNet2DMolFile

> <Tox>
1.907

> <CAS>
31868-18-5

$$$$

  CDK

 24 26  0  0  0  0  0  0  0  0999 V2000
    1.7499    0.5000    0.0000 C   0  0  0  0  0  0  0  0  0  0  0  0
    2.5999    0.0000    0.0000 C   0  0  0  0  0  0  0  0  0  0  0  0
    1.7499    1.4999    0.0000 C   0  0  0  0  0  0  0  0  0  0  0  0
    0.8500    0.0000    0.0000 O   0  0  0  0  0  0  0  0  0  0  0  0
    3.4498    0.5000    0.0000 C   0  0  0  0  0  0  0  0  0  0  0  0
    2.5999    1.9999    0.0000 C   0  0  0  0  0  0  0  0  0  0  0  0
    0.0000    0.5000    0.0000 C   0  0  0  0  0  0  0  0  0  0  0  0
    3.4498    1.4999    0.0000 C   0  0  0  0  0  0  0  0  0  0  0  0
    4.3498    1.9999    0.0000 C   0  0  0  0  0  0  0  0  0  0  0  0
    5.1998    1.4999    0.0000 N   0  0  0  0  0  0  0  0  0  0  0  0
    6.0497    1.9999    0.0000 C   0  0  0  0  0  0  0  0  0  0  0  0
    6.9997    1.6499    0.0000 C   0  0  0  0  0  0  0  0  0  0  0  0
    6.0497    2.9999    0.0000 C   0  0  0  0  0  0  0  0  0  0  0  0
    7.5996    2.4999    0.0000 N   0  0  0  0  0  0  0  0  0  0  0  0
    7.4997    0.8000    0.0000 O   0  0  0  0  0  0  0  0  0  0  0  0
    6.9997    3.2998    0.0000 N   0  0  0  0  0  0  0  0  0  0  0  0
    5.1998    3.4998    0.0000 C   0  0  0  0  0  0  0  0  0  0  0  0
    8.5996    2.4999    0.0000 C   0  0  0  0  0  0  0  0  0  0  0  0
    7.4997    4.1498    0.0000 C   0  0  0  0  0  0  0  0  0  0  0  0
    9.0996    1.5999    0.0000 C   0  0  0  0  0  0  0  0  0  0  0  0
    9.0996    3.3498    0.0000 C   0  0  0  0  0  0  0  0  0  0  0  0
   10.0995    1.5999    0.0000 C   0  0  0  0  0  0  0  0  0  0  0  0
   10.0995    3.3498    0.0000 C   0  0  0  0  0  0  0  0  0  0  0  0
   10.5995    2.4999    0.0000 C   0  0  0  0  0  0  0  0  0  0  0  0
  1  2  2  0  0  0  0 
  3  1  1  0  0  0  0 
  1  4  1  0  0  0  0 
  2  5  1  0  0  0  0 
  6  3  2  0  0  0  0 
  4  7  1  0  0  0  0 
  5  8  2  0  0  0  0 
  8  6  1  0  0  0  0 
  8  9  1  0  0  0  0 
 10  9  2  0  0  0  0 
 11 10  1  0  0  0  0 
 11 12  1  0  0  0  0 
 13 11  2  0  0  0  0 
 12 14  1  0  0  0  0 
 12 15  2  0  0  0  0 
 16 13  1  0  0  0  0 
 13 17  1  0  0  0  0 
 14 18  1  0  0  0  0 
 14 16  1  0  0  0  0 
 16 19  1  0  0  0  0 
 18 20  2  0  0  0  0 
 21 18  1  0  0  0  0 
 20 22  1  0  0  0  0 
 23 21  2  0  0  0  0 
 22 24  2  0  0  0  0 
 24 23  1  0  0  0  0 
M  END
> <Name>
Antipyrine, 4-((p-methoxybenzylidene)amino)-

> <Source>
NIST2DMolFile

> <Tox>
1.507

> <CAS>
32061-14-6

$$$$

  CDK

 23 23  0  0  0  0  0  0  0  0999 V2000
    3.8775    0.6261    0.0000 O   0  0  0  0  0  0  0  0  0  0  0  0
    4.3911    1.2717    0.0000 C   0  0  0  0  0  0  0  0  0  0  0  0
    3.1048    0.9150    0.0000 C   0  0  0  0  0  0  0  0  0  0  0  0
    5.2153    1.2358    0.0000 N   0  0  0  0  0  0  0  0  0  0  0  0
    3.9357    1.9597    0.0000 C   0  0  0  0  0  0  0  0  0  0  0  0
    3.1408    1.7392    0.0000 C   0  0  0  0  0  0  0  0  0  0  0  0
    2.4168    0.4597    0.0000 C   0  0  0  0  0  0  0  0  0  0  0  0
    5.6586    1.9316    0.0000 O   0  0  0  0  0  0  0  0  0  0  0  0
    5.5962    0.5040    0.0000 O   0  0  0  0  0  0  0  0  0  0  0  0
    1.6785    0.8278    0.0000 N   0  0  0  0  0  0  0  0  0  0  0  0
    0.9905    0.3725    0.0000 N   0  0  0  0  0  0  0  0  0  0  0  0
    0.2522    0.7406    0.0000 C   0  0  0  0  0  0  0  0  0  0  0  0
    0.2018    1.5640    0.0000 O   0  0  0  0  0  0  0  0  0  0  0  0
   -0.4358    0.2852    0.0000 C   0  0  0  0  0  0  0  0  0  0  0  0
   -1.1237   -0.1701    0.0000 N   0  0  0  0  0  0  0  0  0  0  0  0
   -1.0734   -0.9936    0.0000 C   0  0  0  0  0  0  0  0  0  0  0  0
   -1.8620    0.1980    0.0000 C   0  0  0  0  0  0  0  0  0  0  0  0
   -1.0230   -1.8170    0.0000 C   0  0  0  0  0  0  0  0  0  0  0  0
   -2.6004    0.5661    0.0000 C   0  0  0  0  0  0  0  0  0  0  0  0
   -0.1995   -1.7667    0.0000 C   0  0  0  0  0  0  0  0  0  0  0  0
   -0.9726   -2.6405    0.0000 C   0  0  0  0  0  0  0  0  0  0  0  0
   -2.9685   -0.1722    0.0000 C   0  0  0  0  0  0  0  0  0  0  0  0
   -3.3387    0.9342    0.0000 C   0  0  0  0  0  0  0  0  0  0  0  0
  1  2  1  0  0  0  0 
  1  3  1  0  0  0  0 
  2  4  1  0  0  0  0 
  2  5  2  0  0  0  0 
  6  3  2  0  0  0  0 
  3  7  1  0  0  0  0 
  4  8  2  0  0  0  0 
  4  9  2  0  0  0  0 
  5  6  1  0  0  0  0 
  7 10  2  0  0  0  0 
 10 11  1  0  0  0  0 
 11 12  1  0  0  0  0 
 12 13  2  0  0  0  0 
 12 14  1  0  0  0  0 
 14 15  1  0  0  0  0 
 15 16  1  0  0  0  0 
 15 17  1  0  0  0  0 
 16 18  1  0  0  0  0 
 17 19  1  0  0  0  0 
 18 20  1  0  0  0  0 
 18 21  1  0  0  0  0 
 19 22  1  0  0  0  0 
 19 23  1  0  0  0  0 
M  END
> <Name>
Glycine, N,N-diisobutyl-, 2-(5-nitrofurfurylidene)hydrazide

> <Source>
Smiles

> <Tox>
2.557

> <CAS>
32224-73-0

$$$$

  CDK

 23 22  0  0  0  0  0  0  0  0999 V2000
   -8.4537   -1.5430   -3.0110 S   0  0  0  0  0  0  0  0  0  0  0  0
   -9.0493    0.4929   -3.0658 P   0  0  0  0  0  0  0  0  0  0  0  0
   -6.7078   -1.5342   -3.5454 C   0  0  0  0  0  0  0  0  0  0  0  0
  -10.9468    0.9074   -2.7872 S   0  0  0  0  0  0  0  0  0  0  0  0
   -8.4816    1.1276   -4.4617 O   0  0  0  0  0  0  0  0  0  0  0  0
   -8.0785    1.3104   -2.0346 O   0  0  0  0  0  0  0  0  0  0  0  0
   -6.0122   -2.8085   -3.0733 C   0  0  0  0  0  0  0  0  0  0  0  0
   -6.6676   -1.4401   -5.0603 C   0  0  0  0  0  0  0  0  0  0  0  0
   -8.5546    2.5242   -4.6964 C   0  0  0  0  0  0  0  0  0  0  0  0
   -8.1831    1.1039   -0.6357 C   0  0  0  0  0  0  0  0  0  0  0  0
   -4.5144   -2.6220   -3.0152 C   0  0  0  0  0  0  0  0  0  0  0  0
   -5.5510   -0.7454   -5.4339 O   0  0  0  0  0  0  0  0  0  0  0  0
   -7.4814   -1.9418   -5.8248 O   0  0  0  0  0  0  0  0  0  0  0  0
   -7.9608    2.8276   -6.0554 C   0  0  0  0  0  0  0  0  0  0  0  0
   -7.1727    1.9835    0.0695 C   0  0  0  0  0  0  0  0  0  0  0  0
   -4.2000   -1.6536   -2.1080 O   0  0  0  0  0  0  0  0  0  0  0  0
   -3.7226   -3.2557   -3.7007 O   0  0  0  0  0  0  0  0  0  0  0  0
   -5.3432   -0.6101   -6.8466 C   0  0  0  0  0  0  0  0  0  0  0  0
   -2.8003   -1.3684   -1.9613 C   0  0  0  0  0  0  0  0  0  0  0  0
   -3.8518    0.3581   -7.2196 S   0  0  0  0  0  0  0  0  0  0  0  0
   -2.5503    0.2709   -1.2204 S   0  0  0  0  0  0  0  0  0  0  0  0
   -2.6169   -0.7168   -6.4500 C   0  0  0  0  0  0  0  0  0  0  0  0
   -3.3847    1.2647   -2.4798 C   0  0  0  0  0  0  0  0  0  0  0  0
  1  2  1  0  0  0  0 
  1  3  1  0  0  0  0 
  4  2  2  0  0  0  0 
  2  5  1  0  0  0  0 
  2  6  1  0  0  0  0 
  3  7  1  0  0  0  0 
  3  8  1  0  0  0  0 
  5  9  1  0  0  0  0 
  6 10  1  0  0  0  0 
  7 11  1  0  0  0  0 
 12  8  1  0  0  0  0 
 13  8  2  0  0  0  0 
  9 14  1  0  0  0  0 
 10 15  1  0  0  0  0 
 16 11  1  0  0  0  0 
 17 11  2  0  0  0  0 
 12 18  1  0  0  0  0 
 16 19  1  0  0  0  0 
 20 18  1  0  0  0  0 
 21 19  1  0  0  0  0 
 20 22  1  0  0  0  0 
 21 23  1  0  0  0  0 
M  END
> <Name>
Butanedioic acid, ((diethoxyphosphinothioyl)thio)-, bis((methylthio)methyl) ester

> <Source>
Chemidplus3DMolFile

> <Tox>
5.058

> <CAS>
32744-43-7

$$$$

  CDK

  8  7  0  0  0  0  0  0  0  0999 V2000
    1.8125    0.5659    0.5352 C   0  0  0  0  0  0  0  0  0  0  0  0
    0.6724   -0.4277    0.3848 C   0  0  0  0  0  0  0  0  0  0  0  0
    2.9528    0.3542    0.1949 O   0  0  0  0  0  0  0  0  0  0  0  0
   -0.6504    0.3349    0.1830 C   0  0  0  0  0  0  0  0  0  0  0  0
    0.9185   -1.4546   -0.7063 C   0  0  0  0  0  0  0  0  0  0  0  0
   -1.8526   -0.6013    0.3326 C   0  0  0  0  0  0  0  0  0  0  0  0
   -0.6888    1.0421   -1.1635 C   0  0  0  0  0  0  0  0  0  0  0  0
   -3.1531    0.1714    0.3675 C   0  0  0  0  0  0  0  0  0  0  0  0
  1  2  1  0  0  0  0 
  1  3  2  0  0  0  0 
  2  4  1  0  0  0  0 
  2  5  1  0  0  0  0 
  4  6  1  0  0  0  0 
  4  7  1  0  0  0  0 
  6  8  1  0  0  0  0 
M  END
> <Name>
Pentanal, 2,3-dimethyl- (9CI)

> <Source>
DougDB3DMolFile

> <Tox>
1.589

> <CAS>
32749-94-3

$$$$

  CDK

 22 22  0  0  0  0  0  0  0  0999 V2000
    1.7022    1.5520    0.0000 C   0  0  0  0  0  0  0  0  0  0  0  0
    2.5533    2.0526    0.0000 C   0  0  0  0  0  0  0  0  0  0  0  0
    0.8511    2.0526    0.0000 C   0  0  0  0  0  0  0  0  0  0  0  0
    1.7022    0.5507    0.0000 Cl  0  0  0  0  0  0  0  0  0  0  0  0
    2.5533    3.1040    0.0000 C   0  0  0  0  0  0  0  0  0  0  0  0
    3.4545    1.5520    0.0000 O   0  0  0  0  0  0  0  0  0  0  0  0
    0.8511    3.1040    0.0000 C   0  0  0  0  0  0  0  0  0  0  0  0
    1.7022    3.6047    0.0000 C   0  0  0  0  0  0  0  0  0  0  0  0
    4.3556    2.0526    0.0000 C   0  0  0  0  0  0  0  0  0  0  0  0
    0.0000    3.6047    0.0000 Cl  0  0  0  0  0  0  0  0  0  0  0  0
    5.2067    1.5520    0.0000 C   0  0  0  0  0  0  0  0  0  0  0  0
    6.0078    2.0026    0.0000 N   0  0  0  0  0  0  0  0  0  0  0  0
    5.2067    0.5507    0.0000 O   0  0  0  0  0  0  0  0  0  0  0  0
    6.8588    1.5019    0.0000 C   0  0  0  0  0  0  0  0  0  0  0  0
    7.7600    2.0026    0.0000 C   0  0  0  0  0  0  0  0  0  0  0  0
    6.8588    0.5507    0.0000 C   0  0  0  0  0  0  0  0  0  0  0  0
    8.5610    1.5019    0.0000 C   0  0  0  0  0  0  0  0  0  0  0  0
    6.0078    0.0501    0.0000 O   0  0  0  0  0  0  0  0  0  0  0  0
    7.7099    0.0000    0.0000 O   0  0  0  0  0  0  0  0  0  0  0  0
    9.4622    2.0026    0.0000 C   0  0  0  0  0  0  0  0  0  0  0  0
   10.3133    1.4018    0.0000 O   0  0  0  0  0  0  0  0  0  0  0  0
    9.4622    3.0039    0.0000 O   0  0  0  0  0  0  0  0  0  0  0  0
  2  1  2  0  0  0  0 
  1  3  1  0  0  0  0 
  1  4  1  0  0  0  0 
  5  2  1  0  0  0  0 
  2  6  1  0  0  0  0 
  3  7  2  0  0  0  0 
  8  5  2  0  0  0  0 
  6  9  1  0  0  0  0 
  7  8  1  0  0  0  0 
  7 10  1  0  0  0  0 
  9 11  1  0  0  0  0 
 11 12  1  0  0  0  0 
 11 13  2  0  0  0  0 
 12 14  1  0  0  0  0 
 14 15  1  0  0  0  0 
 14 16  1  0  0  0  0 
 15 17  1  0  0  0  0 
 16 18  2  0  0  0  0 
 16 19  1  0  0  0  0 
 17 20  1  0  0  0  0 
 20 21  1  0  0  0  0 
 20 22  2  0  0  0  0 
M  END
> <Name>
L-Glutamic acid, N-((2,4-dichlorophenoxy)acetyl)-

> <Source>
NIST2DMolFile

> <Tox>
2.590

> <CAS>
32773-59-4

$$$$

  CDK

 18 19  0  0  0  0  0  0  0  0999 V2000
   -5.3509   -1.0391   -0.7870 O   0  0  0  0  0  0  0  0  0  0  0  0
   -5.0162   -1.9837   -1.7342 C   0  0  0  0  0  0  0  0  0  0  0  0
   -4.5821    0.0961   -0.7151 C   0  0  0  0  0  0  0  0  0  0  0  0
   -5.8482   -3.1869   -1.7944 C   0  0  0  0  0  0  0  0  0  0  0  0
   -3.9992   -1.8948   -2.5999 C   0  0  0  0  0  0  0  0  0  0  0  0
   -3.4907    0.3238   -1.5544 C   0  0  0  0  0  0  0  0  0  0  0  0
   -4.9319    1.0437    0.2469 C   0  0  0  0  0  0  0  0  0  0  0  0
   -6.8314   -3.1867   -2.5471 O   0  0  0  0  0  0  0  0  0  0  0  0
   -5.4732   -4.2788   -1.0027 N   0  0  0  0  0  0  0  0  0  0  0  0
   -3.1424   -0.6922   -2.5625 C   0  0  0  0  0  0  0  0  0  0  0  0
   -2.7435    1.4981   -1.4375 C   0  0  0  0  0  0  0  0  0  0  0  0
   -4.1874    2.2176    0.3661 C   0  0  0  0  0  0  0  0  0  0  0  0
   -6.2245   -5.5319   -0.9989 C   0  0  0  0  0  0  0  0  0  0  0  0
   -4.3081   -4.2402   -0.1286 C   0  0  0  0  0  0  0  0  0  0  0  0
   -2.1998   -0.5561   -3.3302 O   0  0  0  0  0  0  0  0  0  0  0  0
   -3.0961    2.4441   -0.4741 C   0  0  0  0  0  0  0  0  0  0  0  0
   -5.6804   -6.4702   -2.0589 C   0  0  0  0  0  0  0  0  0  0  0  0
   -4.7031   -3.7359    1.2461 C   0  0  0  0  0  0  0  0  0  0  0  0
  1  2  1  0  0  0  0 
  1  3  1  0  0  0  0 
  4  2  1  0  0  0  0 
  2  5  2  0  0  0  0 
  6  3  1  0  0  0  0 
  3  7  2  0  0  0  0 
  8  4  2  0  0  0  0 
  9  4  1  0  0  0  0 
  5 10  1  0  0  0  0 
  6 10  1  0  0  0  0 
  6 11  2  0  0  0  0 
  7 12  1  0  0  0  0 
  9 13  1  0  0  0  0 
  9 14  1  0  0  0  0 
 15 10  2  0  0  0  0 
 11 16  1  0  0  0  0 
 16 12  2  0  0  0  0 
 13 17  1  0  0  0  0 
 14 18  1  0  0  0  0 
M  END
> <Name>
4H-1-Benzopyran-2-carboxamide, N,N-diethyl-4-oxo-

> <Source>
Chemidplus3DMolFile

> <Tox>
1.788

> <CAS>
32773-96-9

$$$$

  CDK

 20 21  0  0  0  0  0  0  0  0999 V2000
    0.6705   -4.6100    0.0000 C   0  0  0  0  0  0  0  0  0  0  0  0
    0.0000   -3.4605    0.0000 C   0  0  0  0  0  0  0  0  0  0  0  0
    1.9997   -4.6100    0.0000 C   0  0  0  0  0  0  0  0  0  0  0  0
    0.6705   -2.3110    0.0000 C   0  0  0  0  0  0  0  0  0  0  0  0
    2.6582   -3.4605    0.0000 C   0  0  0  0  0  0  0  0  0  0  0  0
    1.9997   -2.3110    0.0000 C   0  0  0  0  0  0  0  0  0  0  0  0
    3.9874   -3.4605    0.0000 C   0  0  0  0  0  0  0  0  0  0  0  0
    4.6579   -2.3110    0.0000 C   0  0  0  0  0  0  0  0  0  0  0  0
    4.6579   -4.6100    0.0000 C   0  0  0  0  0  0  0  0  0  0  0  0
    3.9874   -1.1495    0.0000 Cl  0  0  0  0  0  0  0  0  0  0  0  0
    5.9870   -2.3110    0.0000 C   0  0  0  0  0  0  0  0  0  0  0  0
    5.9870   -4.6100    0.0000 C   0  0  0  0  0  0  0  0  0  0  0  0
    6.6576   -3.4605    0.0000 C   0  0  0  0  0  0  0  0  0  0  0  0
    7.9867   -3.4605    0.0000 C   0  0  0  0  0  0  0  0  0  0  0  0
    8.6453   -4.6100    0.0000 O   0  0  0  0  0  0  0  0  0  0  0  0
    8.6453   -2.3110    0.0000 C   0  0  0  0  0  0  0  0  0  0  0  0
    9.9744   -2.3110    0.0000 C   0  0  0  0  0  0  0  0  0  0  0  0
   10.6449   -1.1495    0.0000 C   0  0  0  0  0  0  0  0  0  0  0  0
    9.9744   -0.0000    0.0000 O   0  0  0  0  0  0  0  0  0  0  0  0
   11.9741   -1.1495    0.0000 O   0  0  0  0  0  0  0  0  0  0  0  0
  1  2  1  0  0  0  0 
  1  3  1  0  0  0  0 
  2  4  1  0  0  0  0 
  5  3  1  0  0  0  0 
  4  6  1  0  0  0  0 
  6  5  1  0  0  0  0 
  5  7  1  0  0  0  0 
  7  8  2  0  0  0  0 
  7  9  1  0  0  0  0 
  8 10  1  0  0  0  0 
  8 11  1  0  0  0  0 
 12  9  2  0  0  0  0 
 11 13  2  0  0  0  0 
 13 12  1  0  0  0  0 
 13 14  1  0  0  0  0 
 14 15  2  0  0  0  0 
 14 16  1  0  0  0  0 
 16 17  1  0  0  0  0 
 17 18  1  0  0  0  0 
 18 19  1  0  0  0  0 
 18 20  2  0  0  0  0 
M  END
> <Name>
Propionic acid, 3-(3-chloro-4-cyclohexylbenzoyl)-

> <Source>
DSSTox2DMolFile

> <Tox>
3.390

> <CAS>
32808-51-8

$$$$

  CDK

 17 18  0  0  0  0  0  0  0  0999 V2000
    3.9825   -4.8059    0.0000 N   0  0  0  0  0  0  0  0  0  0  0  0
    3.3316   -5.9355    0.0000 C   0  0  0  0  0  0  0  0  0  0  0  0
    3.3316   -3.6379    0.0000 C   0  0  0  0  0  0  0  0  0  0  0  0
    2.0008   -5.9355    0.0000 N   0  0  0  0  0  0  0  0  0  0  0  0
    3.9825   -7.0748    0.0000 N   0  0  0  0  0  0  0  0  0  0  0  0
    2.0008   -3.6379    0.0000 N   0  0  0  0  0  0  0  0  0  0  0  0
    3.9825   -2.4987    0.0000 N   0  0  0  0  0  0  0  0  0  0  0  0
    1.3307   -4.8059    0.0000 C   0  0  0  0  0  0  0  0  0  0  0  0
    3.3316   -8.2331    0.0000 C   0  0  0  0  0  0  0  0  0  0  0  0
    3.3316   -1.3403    0.0000 C   0  0  0  0  0  0  0  0  0  0  0  0
    0.0000   -4.8059    0.0000 Cl  0  0  0  0  0  0  0  0  0  0  0  0
    4.4708   -8.9033    0.0000 C   0  0  0  0  0  0  0  0  0  0  0  0
    2.1732   -7.5726    0.0000 C   0  0  0  0  0  0  0  0  0  0  0  0
    2.6614   -9.4011    0.0000 C   0  0  0  0  0  0  0  0  0  0  0  0
    2.1732   -0.6701    0.0000 C   0  0  0  0  0  0  0  0  0  0  0  0
    3.3316   -0.0000    0.0000 C   0  0  0  0  0  0  0  0  0  0  0  0
    5.6387   -9.5734    0.0000 N   0  0  0  0  0  0  0  0  0  0  0  0
  1  2  1  0  0  0  0 
  1  3  2  0  0  0  0 
  2  4  2  0  0  0  0 
  2  5  1  0  0  0  0 
  6  3  1  0  0  0  0 
  3  7  1  0  0  0  0 
  4  8  1  0  0  0  0 
  5  9  1  0  0  0  0 
  8  6  2  0  0  0  0 
  7 10  1  0  0  0  0 
  8 11  1  0  0  0  0 
 12  9  1  0  0  0  0 
  9 13  1  0  0  0  0 
  9 14  1  0  0  0  0 
 10 15  1  0  0  0  0 
 10 16  1  0  0  0  0 
 12 17  3  0  0  0  0 
 15 16  1  0  0  0  0 
M  END
> <Name>
Propionitrile, 2-(4-chloro-6-(cyclopropylamino)-s-triazin-2-ylamino)-2-methyl-

> <Source>
DSSTox2DMolFile

> <Tox>
2.940

> <CAS>
32889-48-8

$$$$

  CDK

 17 18  0  0  0  0  0  0  0  0999 V2000
    1.1508   -0.6652    0.0000 C   0  0  0  0  0  0  0  0  0  0  0  0
    2.3015   -0.0000    0.0000 C   0  0  0  0  0  0  0  0  0  0  0  0
    1.1508   -1.9955    0.0000 C   0  0  0  0  0  0  0  0  0  0  0  0
    3.4589   -0.6652    0.0000 C   0  0  0  0  0  0  0  0  0  0  0  0
    2.3015   -2.6607    0.0000 C   0  0  0  0  0  0  0  0  0  0  0  0
    0.0000   -2.6607    0.0000 Cl  0  0  0  0  0  0  0  0  0  0  0  0
    3.4589   -1.9955    0.0000 C   0  0  0  0  0  0  0  0  0  0  0  0
    2.3015   -3.9911    0.0000 N   0  0  0  0  0  0  0  0  0  0  0  0
    4.6097   -2.6607    0.0000 Cl  0  0  0  0  0  0  0  0  0  0  0  0
    1.1508   -4.6562    0.0000 C   0  0  0  0  0  0  0  0  0  0  0  0
    3.4589   -4.6562    0.0000 C   0  0  0  0  0  0  0  0  0  0  0  0
    1.1508   -5.9866    0.0000 C   0  0  0  0  0  0  0  0  0  0  0  0
    4.6695   -4.1174    0.0000 N   0  0  0  0  0  0  0  0  0  0  0  0
    3.5986   -5.9799    0.0000 N   0  0  0  0  0  0  0  0  0  0  0  0
    2.3015   -6.6518    0.0000 C   0  0  0  0  0  0  0  0  0  0  0  0
    5.5609   -5.1019    0.0000 C   0  0  0  0  0  0  0  0  0  0  0  0
    4.8957   -6.2526    0.0000 C   0  0  0  0  0  0  0  0  0  0  0  0
  1  2  2  0  0  0  0 
  1  3  1  0  0  0  0 
  2  4  1  0  0  0  0 
  5  3  2  0  0  0  0 
  3  6  1  0  0  0  0 
  4  7  2  0  0  0  0 
  7  5  1  0  0  0  0 
  5  8  1  0  0  0  0 
  7  9  1  0  0  0  0 
  8 10  1  0  0  0  0 
  8 11  1  0  0  0  0 
 10 12  1  0  0  0  0 
 11 13  2  0  0  0  0 
 11 14  1  0  0  0  0 
 12 15  2  0  0  0  0 
 13 16  1  0  0  0  0 
 17 14  1  0  0  0  0 
 16 17  1  0  0  0  0 
M  END
> <Name>
2-Imidazoline, 2-(N-allyl-2,6-dichloroanilino)-

> <Source>
DSSTox2DMolFile

> <Tox>
2.733

> <CAS>
33178-86-8

$$$$

  CDK

 21 22  0  0  0  0  0  0  0  0999 V2000
   -0.6482   -0.4787    0.0000 N   0  0  0  0  0  0  0  0  0  0  0  0
    0.0908   -0.1270    0.0000 C   0  0  0  0  0  0  0  0  0  0  0  0
   -1.3342   -0.0146    0.0000 C   0  0  0  0  0  0  0  0  0  0  0  0
    0.7735   -0.6100    0.0000 C   0  0  0  0  0  0  0  0  0  0  0  0
    0.1551    0.6942    0.0000 N   0  0  0  0  0  0  0  0  0  0  0  0
   -1.2823    0.8193    0.0000 C   0  0  0  0  0  0  0  0  0  0  0  0
    1.6046   -0.6224    0.0000 O   0  0  0  0  0  0  0  0  0  0  0  0
    1.1901   -1.3454    0.0000 C   0  0  0  0  0  0  0  0  0  0  0  0
   -0.5231    1.1673    0.0000 C   0  0  0  0  0  0  0  0  0  0  0  0
   -2.1453    0.8812    0.0000 C   0  0  0  0  0  0  0  0  0  0  0  0
   -1.3762    1.6689    0.0000 C   0  0  0  0  0  0  0  0  0  0  0  0
    2.2540   -0.1103    0.0000 C   0  0  0  0  0  0  0  0  0  0  0  0
    0.7212   -2.0261    0.0000 C   0  0  0  0  0  0  0  0  0  0  0  0
    2.0167   -1.4256    0.0000 C   0  0  0  0  0  0  0  0  0  0  0  0
   -2.9996    0.9886    0.0000 C   0  0  0  0  0  0  0  0  0  0  0  0
   -1.6250    2.4888    0.0000 C   0  0  0  0  0  0  0  0  0  0  0  0
    3.0639    0.0888    0.0000 C   0  0  0  0  0  0  0  0  0  0  0  0
    1.0695   -2.7754    0.0000 C   0  0  0  0  0  0  0  0  0  0  0  0
    2.3628   -2.1656    0.0000 C   0  0  0  0  0  0  0  0  0  0  0  0
    0.6781   -3.5034    0.0000 Cl  0  0  0  0  0  0  0  0  0  0  0  0
    1.8869   -2.8471    0.0000 C   0  0  0  0  0  0  0  0  0  0  0  0
  1  2  1  0  0  0  0 
  1  3  1  0  0  0  0 
  2  4  1  0  0  0  0 
  2  5  2  0  0  0  0 
  6  3  1  0  0  0  0 
  4  7  1  0  0  0  0 
  4  8  1  0  0  0  0 
  5  9  1  0  0  0  0 
  9  6  1  0  0  0  0 
  6 10  1  0  0  0  0 
  6 11  1  0  0  0  0 
  7 12  1  0  0  0  0 
  8 13  1  0  0  0  0 
  8 14  2  0  0  0  0 
 10 15  1  0  0  0  0 
 11 16  1  0  0  0  0 
 12 17  1  0  0  0  0 
 13 18  2  0  0  0  0 
 19 14  1  0  0  0  0 
 18 20  1  0  0  0  0 
 18 21  1  0  0  0  0 
 21 19  2  0  0  0  0 
M  END
> <Name>
Pyrimidine, 3,4,5,6-tetrahydro-2-(3-chloro-alpha-ethoxybenzyl)-5,5-diethyl-

> <Source>
Smiles

> <Tox>
3.448

> <CAS>
33210-43-4

$$$$

  CDK

 21 22  0  0  0  0  0  0  0  0999 V2000
   -1.2321    0.2173    0.0000 N   0  0  0  0  0  0  0  0  0  0  0  0
   -0.4744    0.5452    0.0000 C   0  0  0  0  0  0  0  0  0  0  0  0
   -1.9013    0.6995    0.0000 C   0  0  0  0  0  0  0  0  0  0  0  0
    0.2398    0.0720    0.0000 C   0  0  0  0  0  0  0  0  0  0  0  0
   -0.3911    1.3671    0.0000 N   0  0  0  0  0  0  0  0  0  0  0  0
   -1.8224    1.5337    0.0000 C   0  0  0  0  0  0  0  0  0  0  0  0
    1.0696    0.0900    0.0000 O   0  0  0  0  0  0  0  0  0  0  0  0
    0.6990   -0.6646    0.0000 C   0  0  0  0  0  0  0  0  0  0  0  0
   -1.0548    1.8566    0.0000 C   0  0  0  0  0  0  0  0  0  0  0  0
   -2.6831    1.5671    0.0000 C   0  0  0  0  0  0  0  0  0  0  0  0
   -2.0287    2.3653    0.0000 C   0  0  0  0  0  0  0  0  0  0  0  0
    1.7462    0.5773    0.0000 C   0  0  0  0  0  0  0  0  0  0  0  0
    0.2120   -1.3436    0.0000 C   0  0  0  0  0  0  0  0  0  0  0  0
    1.5202   -0.7598    0.0000 C   0  0  0  0  0  0  0  0  0  0  0  0
    2.5689    0.7516    0.0000 C   0  0  0  0  0  0  0  0  0  0  0  0
    0.5542   -2.0982    0.0000 C   0  0  0  0  0  0  0  0  0  0  0  0
    1.8514   -1.5167    0.0000 C   0  0  0  0  0  0  0  0  0  0  0  0
   -0.0967   -2.6024    0.0000 F   0  0  0  0  0  0  0  0  0  0  0  0
    1.3696   -2.1809    0.0000 C   0  0  0  0  0  0  0  0  0  0  0  0
    1.9323   -2.7832    0.0000 O   0  0  0  0  0  0  0  0  0  0  0  0
    1.5918   -3.5406    0.0000 C   0  0  0  0  0  0  0  0  0  0  0  0
  1  2  1  0  0  0  0 
  1  3  1  0  0  0  0 
  2  4  1  0  0  0  0 
  2  5  2  0  0  0  0 
  6  3  1  0  0  0  0 
  4  7  1  0  0  0  0 
  4  8  1  0  0  0  0 
  5  9  1  0  0  0  0 
  9  6  1  0  0  0  0 
  6 10  1  0  0  0  0 
  6 11  1  0  0  0  0 
  7 12  1  0  0  0  0 
  8 13  1  0  0  0  0 
  8 14  2  0  0  0  0 
 12 15  1  0  0  0  0 
 13 16  2  0  0  0  0 
 17 14  1  0  0  0  0 
 16 18  1  0  0  0  0 
 16 19  1  0  0  0  0 
 19 17  2  0  0  0  0 
 19 20  1  0  0  0  0 
 20 21  1  0  0  0  0 
M  END
> <Name>
Pyrimidine, 3,4,5,6-tetrahydro-5,5-dimethyl-2-(alpha-ethoxy-3-fluoro-4-methoxybenzyl)-

> <Source>
Smiles

> <Tox>
2.964

> <CAS>
33210-47-8

$$$$

  CDK

 20 21  0  0  0  0  0  0  0  0999 V2000
   -0.7764   -0.2627    0.0000 N   0  0  0  0  0  0  0  0  0  0  0  0
   -0.0287    0.0860    0.0000 C   0  0  0  0  0  0  0  0  0  0  0  0
   -1.4543    0.2113    0.0000 C   0  0  0  0  0  0  0  0  0  0  0  0
    0.6495   -0.4039    0.0000 C   0  0  0  0  0  0  0  0  0  0  0  0
    0.0423    0.9024    0.0000 N   0  0  0  0  0  0  0  0  0  0  0  0
   -1.3917    1.0452    0.0000 C   0  0  0  0  0  0  0  0  0  0  0  0
    1.4712   -0.4425    0.0000 O   0  0  0  0  0  0  0  0  0  0  0  0
    1.0875   -1.1441    0.0000 C   0  0  0  0  0  0  0  0  0  0  0  0
   -0.6263    1.3770    0.0000 C   0  0  0  0  0  0  0  0  0  0  0  0
   -2.2535    1.0820    0.0000 C   0  0  0  0  0  0  0  0  0  0  0  0
   -1.5782    1.8780    0.0000 C   0  0  0  0  0  0  0  0  0  0  0  0
    2.1399    0.0437    0.0000 C   0  0  0  0  0  0  0  0  0  0  0  0
    0.6145   -1.8240    0.0000 C   0  0  0  0  0  0  0  0  0  0  0  0
    1.9070   -1.2174    0.0000 C   0  0  0  0  0  0  0  0  0  0  0  0
   -3.0956    1.2544    0.0000 C   0  0  0  0  0  0  0  0  0  0  0  0
    2.9481    0.2545    0.0000 C   0  0  0  0  0  0  0  0  0  0  0  0
    0.9720   -2.5672    0.0000 C   0  0  0  0  0  0  0  0  0  0  0  0
    2.2568   -1.9628    0.0000 C   0  0  0  0  0  0  0  0  0  0  0  0
    0.5896   -3.2834    0.0000 F   0  0  0  0  0  0  0  0  0  0  0  0
    1.7800   -2.6413    0.0000 C   0  0  0  0  0  0  0  0  0  0  0  0
  1  2  1  0  0  0  0 
  1  3  1  0  0  0  0 
  2  4  1  0  0  0  0 
  2  5  2  0  0  0  0 
  6  3  1  0  0  0  0 
  4  7  1  0  0  0  0 
  4  8  1  0  0  0  0 
  5  9  1  0  0  0  0 
  9  6  1  0  0  0  0 
  6 10  1  0  0  0  0 
  6 11  1  0  0  0  0 
  7 12  1  0  0  0  0 
  8 13  1  0  0  0  0 
  8 14  2  0  0  0  0 
 10 15  1  0  0  0  0 
 12 16  1  0  0  0  0 
 13 17  2  0  0  0  0 
 18 14  1  0  0  0  0 
 17 19  1  0  0  0  0 
 17 20  1  0  0  0  0 
 20 18  2  0  0  0  0 
M  END
> <Name>
Pyrimidine, 3,4,5,6-tetrahydro-2-(alpha-ethoxy-3-fluorobenzyl)-5-ethyl-5-methyl-

> <Source>
Smiles

> <Tox>
3.227

> <CAS>
33210-49-0

$$$$

  CDK

 18 19  0  0  0  0  0  0  0  0999 V2000
   -1.4264    0.1482    0.0000 N   0  0  0  0  0  0  0  0  0  0  0  0
   -0.7120    0.5607    0.0000 C   0  0  0  0  0  0  0  0  0  0  0  0
   -2.1409    0.5607    0.0000 C   0  0  0  0  0  0  0  0  0  0  0  0
    0.0025    0.1482    0.0000 C   0  0  0  0  0  0  0  0  0  0  0  0
   -0.7120    1.3857    0.0000 N   0  0  0  0  0  0  0  0  0  0  0  0
   -2.1409    1.3857    0.0000 C   0  0  0  0  0  0  0  0  0  0  0  0
    0.7170   -0.2643    0.0000 O   0  0  0  0  0  0  0  0  0  0  0  0
    0.4150   -0.5663    0.0000 C   0  0  0  0  0  0  0  0  0  0  0  0
   -1.4264    1.7982    0.0000 C   0  0  0  0  0  0  0  0  0  0  0  0
    1.4315    0.1482    0.0000 C   0  0  0  0  0  0  0  0  0  0  0  0
    0.0025   -1.2808    0.0000 C   0  0  0  0  0  0  0  0  0  0  0  0
    1.2400   -0.5663    0.0000 C   0  0  0  0  0  0  0  0  0  0  0  0
    2.1459    0.5607    0.0000 C   0  0  0  0  0  0  0  0  0  0  0  0
   -0.8225   -1.2808    0.0000 Cl  0  0  0  0  0  0  0  0  0  0  0  0
    0.4150   -1.9953    0.0000 C   0  0  0  0  0  0  0  0  0  0  0  0
    1.6525   -1.2808    0.0000 C   0  0  0  0  0  0  0  0  0  0  0  0
    1.9545   -0.9788    0.0000 Cl  0  0  0  0  0  0  0  0  0  0  0  0
    1.2400   -1.9953    0.0000 C   0  0  0  0  0  0  0  0  0  0  0  0
  1  2  1  0  0  0  0 
  1  3  1  0  0  0  0 
  2  4  1  0  0  0  0 
  2  5  2  0  0  0  0 
  6  3  1  0  0  0  0 
  4  7  1  0  0  0  0 
  4  8  1  0  0  0  0 
  5  9  1  0  0  0  0 
  9  6  1  0  0  0  0 
  7 10  1  0  0  0  0 
  8 11  1  0  0  0  0 
  8 12  2  0  0  0  0 
 10 13  1  0  0  0  0 
 11 14  1  0  0  0  0 
 11 15  2  0  0  0  0 
 16 12  1  0  0  0  0 
 12 17  1  0  0  0  0 
 15 18  1  0  0  0  0 
 18 16  2  0  0  0  0 
M  END
> <Name>
Pyrimidine, 3,4,5,6-tetrahydro-2-(2,6-dichloro-alpha-ethoxybenzyl)-

> <Source>
Smiles

> <Tox>
2.662

> <CAS>
33235-85-7

$$$$

  CDK

 17 18  0  0  0  0  0  0  0  0999 V2000
   -1.4264    0.1482    0.0000 N   0  0  0  0  0  0  0  0  0  0  0  0
   -0.7120    0.5607    0.0000 C   0  0  0  0  0  0  0  0  0  0  0  0
   -2.1409    0.5607    0.0000 C   0  0  0  0  0  0  0  0  0  0  0  0
    0.0025    0.1482    0.0000 C   0  0  0  0  0  0  0  0  0  0  0  0
   -0.7120    1.3857    0.0000 N   0  0  0  0  0  0  0  0  0  0  0  0
   -2.1409    1.3857    0.0000 C   0  0  0  0  0  0  0  0  0  0  0  0
    0.7170   -0.2643    0.0000 O   0  0  0  0  0  0  0  0  0  0  0  0
    0.4150   -0.5663    0.0000 C   0  0  0  0  0  0  0  0  0  0  0  0
   -1.4264    1.7982    0.0000 C   0  0  0  0  0  0  0  0  0  0  0  0
    1.4315    0.1482    0.0000 C   0  0  0  0  0  0  0  0  0  0  0  0
    0.0025   -1.2808    0.0000 C   0  0  0  0  0  0  0  0  0  0  0  0
    1.2400   -0.5663    0.0000 C   0  0  0  0  0  0  0  0  0  0  0  0
    2.1459    0.5607    0.0000 C   0  0  0  0  0  0  0  0  0  0  0  0
    0.4150   -1.9953    0.0000 C   0  0  0  0  0  0  0  0  0  0  0  0
    1.6525   -1.2808    0.0000 C   0  0  0  0  0  0  0  0  0  0  0  0
    0.0025   -2.7097    0.0000 F   0  0  0  0  0  0  0  0  0  0  0  0
    1.2400   -1.9953    0.0000 C   0  0  0  0  0  0  0  0  0  0  0  0
  1  2  1  0  0  0  0 
  1  3  1  0  0  0  0 
  2  4  1  0  0  0  0 
  2  5  2  0  0  0  0 
  6  3  1  0  0  0  0 
  4  7  1  0  0  0  0 
  4  8  1  0  0  0  0 
  5  9  1  0  0  0  0 
  9  6  1  0  0  0  0 
  7 10  1  0  0  0  0 
  8 11  1  0  0  0  0 
  8 12  2  0  0  0  0 
 10 13  1  0  0  0  0 
 11 14  2  0  0  0  0 
 15 12  1  0  0  0  0 
 14 16  1  0  0  0  0 
 14 17  1  0  0  0  0 
 17 15  2  0  0  0  0 
M  END
> <Name>
Pyrimidine, 3,4,5,6-tetrahydro-2-(alpha-ethoxy-3-fluorobenzyl)-

> <Source>
Smiles

> <Tox>
2.373

> <CAS>
33235-92-6

$$$$

  CDK

 17 18  0  0  0  0  0  0  0  0999 V2000
   -1.6777   -0.8688    0.0000 N   0  0  0  0  0  0  0  0  0  0  0  0
   -0.9632   -0.4563    0.0000 C   0  0  0  0  0  0  0  0  0  0  0  0
   -2.3921   -0.4563    0.0000 C   0  0  0  0  0  0  0  0  0  0  0  0
   -0.2487   -0.8688    0.0000 C   0  0  0  0  0  0  0  0  0  0  0  0
   -0.9632    0.3687    0.0000 N   0  0  0  0  0  0  0  0  0  0  0  0
   -2.3921    0.3687    0.0000 C   0  0  0  0  0  0  0  0  0  0  0  0
    0.1638   -0.1543    0.0000 C   0  0  0  0  0  0  0  0  0  0  0  0
    0.4658   -1.2813    0.0000 O   0  0  0  0  0  0  0  0  0  0  0  0
   -1.6777    0.7812    0.0000 C   0  0  0  0  0  0  0  0  0  0  0  0
    0.9888   -0.1543    0.0000 C   0  0  0  0  0  0  0  0  0  0  0  0
   -0.2487    0.5602    0.0000 C   0  0  0  0  0  0  0  0  0  0  0  0
    1.1802   -0.8688    0.0000 C   0  0  0  0  0  0  0  0  0  0  0  0
    1.4013    0.5602    0.0000 C   0  0  0  0  0  0  0  0  0  0  0  0
    0.1638    1.2746    0.0000 C   0  0  0  0  0  0  0  0  0  0  0  0
    1.8947   -0.4563    0.0000 C   0  0  0  0  0  0  0  0  0  0  0  0
    0.9888    1.2746    0.0000 C   0  0  0  0  0  0  0  0  0  0  0  0
    2.6092   -0.0438    0.0000 C   0  0  0  0  0  0  0  0  0  0  0  0
  1  2  1  0  0  0  0 
  1  3  1  0  0  0  0 
  2  4  1  0  0  0  0 
  2  5  2  0  0  0  0 
  6  3  1  0  0  0  0 
  4  7  1  0  0  0  0 
  4  8  1  0  0  0  0 
  5  9  1  0  0  0  0 
  9  6  1  0  0  0  0 
  7 10  1  0  0  0  0 
  7 11  2  0  0  0  0 
  8 12  1  0  0  0  0 
 10 13  2  0  0  0  0 
 14 11  1  0  0  0  0 
 12 15  1  0  0  0  0 
 13 16  1  0  0  0  0 
 16 14  2  0  0  0  0 
 15 17  1  0  0  0  0 
M  END
> <Name>
Pyrimidine, 3,4,5,6-tetrahydro-2-(alpha-propoxybenzyl)-

> <Source>
Smiles

> <Tox>
2.570

> <CAS>
33235-97-1

$$$$

  CDK

 22 24  0  0  0  0  0  0  0  0999 V2000
   -0.1618   -1.1476    0.0000 C   0  0  0  0  0  0  0  0  0  0  0  0
   -0.8814   -0.7097    0.0000 C   0  0  0  0  0  0  0  0  0  0  0  0
   -0.1618   -1.9713    0.0000 C   0  0  0  0  0  0  0  0  0  0  0  0
    0.5559   -0.7523    0.0000 C   0  0  0  0  0  0  0  0  0  0  0  0
   -0.9337    0.1675    0.0000 C   0  0  0  0  0  0  0  0  0  0  0  0
   -1.5868   -1.1287    0.0000 C   0  0  0  0  0  0  0  0  0  0  0  0
   -0.8756   -2.3739    0.0000 C   0  0  0  0  0  0  0  0  0  0  0  0
    0.5483   -2.3941    0.0000 C   0  0  0  0  0  0  0  0  0  0  0  0
    1.2772   -1.1740    0.0000 C   0  0  0  0  0  0  0  0  0  0  0  0
   -1.7957    0.2240    0.0000 O   0  0  0  0  0  0  0  0  0  0  0  0
   -0.2439    0.7079    0.0000 C   0  0  0  0  0  0  0  0  0  0  0  0
   -1.5895   -1.9588    0.0000 C   0  0  0  0  0  0  0  0  0  0  0  0
    1.2631   -1.9928    0.0000 C   0  0  0  0  0  0  0  0  0  0  0  0
   -2.5146    0.6889    0.0000 C   0  0  0  0  0  0  0  0  0  0  0  0
    0.3036    0.1094    0.0000 N   0  0  0  0  0  0  0  0  0  0  0  0
    0.0243    1.4983    0.0000 N   0  0  0  0  0  0  0  0  0  0  0  0
   -3.1036    1.2979    0.0000 C   0  0  0  0  0  0  0  0  0  0  0  0
    1.1100    0.2716    0.0000 C   0  0  0  0  0  0  0  0  0  0  0  0
    0.8418    1.6651    0.0000 C   0  0  0  0  0  0  0  0  0  0  0  0
    1.3988    1.0395    0.0000 C   0  0  0  0  0  0  0  0  0  0  0  0
    2.1137    1.5028    0.0000 C   0  0  0  0  0  0  0  0  0  0  0  0
    2.1421    0.5886    0.0000 C   0  0  0  0  0  0  0  0  0  0  0  0
  1  2  2  0  0  0  0 
  1  3  1  0  0  0  0 
  1  4  1  0  0  0  0 
  2  5  1  0  0  0  0 
  2  6  1  0  0  0  0 
  7  3  2  0  0  0  0 
  3  8  1  0  0  0  0 
  9  4  2  0  0  0  0 
  5 10  1  0  0  0  0 
  5 11  1  0  0  0  0 
  6 12  2  0  0  0  0 
 12  7  1  0  0  0  0 
  8 13  2  0  0  0  0 
 13  9  1  0  0  0  0 
 10 14  1  0  0  0  0 
 11 15  2  0  0  0  0 
 11 16  1  0  0  0  0 
 14 17  1  0  0  0  0 
 15 18  1  0  0  0  0 
 19 16  1  0  0  0  0 
 18 20  1  0  0  0  0 
 20 19  1  0  0  0  0 
 20 21  1  0  0  0  0 
 20 22  1  0  0  0  0 
M  END
> <Name>
Pyrimidine, 3,4,5,6-tetrahydro-5,5-dimethyl-2-(ethoxy-(1-naphthyl)methyl)-

> <Source>
Smiles

> <Tox>
3.732

> <CAS>
33236-10-1

$$$$

  CDK

 16 17  0  0  0  0  0  0  0  0999 V2000
   -1.4838   -0.5185    0.0000 N   0  0  0  0  0  0  0  0  0  0  0  0
   -0.6992   -0.2636    0.0000 C   0  0  0  0  0  0  0  0  0  0  0  0
   -1.9687    0.1489    0.0000 C   0  0  0  0  0  0  0  0  0  0  0  0
   -0.0318   -0.7485    0.0000 C   0  0  0  0  0  0  0  0  0  0  0  0
   -0.6992    0.5614    0.0000 N   0  0  0  0  0  0  0  0  0  0  0  0
   -1.4838    0.8164    0.0000 C   0  0  0  0  0  0  0  0  0  0  0  0
   -2.7569   -0.0949    0.0000 C   0  0  0  0  0  0  0  0  0  0  0  0
    0.4532   -0.0810    0.0000 C   0  0  0  0  0  0  0  0  0  0  0  0
    0.6357   -1.2334    0.0000 O   0  0  0  0  0  0  0  0  0  0  0  0
    1.2737   -0.1673    0.0000 C   0  0  0  0  0  0  0  0  0  0  0  0
    0.1176    0.6726    0.0000 C   0  0  0  0  0  0  0  0  0  0  0  0
    1.3894   -0.8978    0.0000 C   0  0  0  0  0  0  0  0  0  0  0  0
    1.7586    0.5002    0.0000 C   0  0  0  0  0  0  0  0  0  0  0  0
    0.6025    1.3401    0.0000 C   0  0  0  0  0  0  0  0  0  0  0  0
    2.1430   -0.5623    0.0000 C   0  0  0  0  0  0  0  0  0  0  0  0
    1.4230    1.2538    0.0000 C   0  0  0  0  0  0  0  0  0  0  0  0
  1  2  1  0  0  0  0 
  1  3  1  0  0  0  0 
  2  4  1  0  0  0  0 
  2  5  2  0  0  0  0 
  6  3  1  0  0  0  0 
  3  7  1  0  0  0  0 
  4  8  1  0  0  0  0 
  4  9  1  0  0  0  0 
  5  6  1  0  0  0  0 
  8 10  1  0  0  0  0 
  8 11  2  0  0  0  0 
  9 12  1  0  0  0  0 
 10 13  2  0  0  0  0 
 14 11  1  0  0  0  0 
 12 15  1  0  0  0  0 
 13 16  1  0  0  0  0 
 16 14  2  0  0  0  0 
M  END
> <Name>
2-Imidazoline, 2-(alpha-ethoxybenzyl)-5-methyl-

> <Source>
Smiles

> <Tox>
2.339

> <CAS>
33236-18-9

$$$$

  CDK

 14 14  0  0  0  0  0  0  0  0999 V2000
    0.0000    0.0000    0.0000 N   0  0  0  0  0  0  0  0  0  0  0  0
    0.6000    1.0600   -0.0200 N   0  0  0  0  0  0  0  0  0  0  0  0
   -1.2400   -0.0200   -0.0200 N   0  0  0  0  0  0  0  0  0  0  0  0
    1.9800    1.1200    0.4400 C   0  0  0  0  0  0  0  0  0  0  0  0
   -0.0600    2.2800   -0.5000 C   0  0  0  0  0  0  0  0  0  0  0  0
   -1.9200   -1.2000    0.0000 C   0  0  0  0  0  0  0  0  0  0  0  0
   -3.3200   -1.2600    0.0400 C   0  0  0  0  0  0  0  0  0  0  0  0
   -1.1800   -2.4000   -0.0200 C   0  0  0  0  0  0  0  0  0  0  0  0
   -3.9800   -2.5000    0.0600 C   0  0  0  0  0  0  0  0  0  0  0  0
   -4.1600    0.0000    0.0800 C   0  0  0  0  0  0  0  0  0  0  0  0
   -1.8400   -3.6400    0.0000 C   0  0  0  0  0  0  0  0  0  0  0  0
   -3.2400   -3.7000    0.0400 C   0  0  0  0  0  0  0  0  0  0  0  0
   -3.8600    0.9400    1.0000 N   0  0  0  0  0  0  0  0  0  0  0  0
   -5.0600    0.1600   -0.7200 O   0  0  0  0  0  0  0  0  0  0  0  0
  1  2  1  0  0  0  0 
  1  3  2  0  0  0  0 
  2  4  1  0  0  0  0 
  2  5  1  0  0  0  0 
  3  6  1  0  0  0  0 
  6  7  2  0  0  0  0 
  6  8  1  0  0  0  0 
  7  9  1  0  0  0  0 
  7 10  1  0  0  0  0 
 11  8  2  0  0  0  0 
  9 12  2  0  0  0  0 
 10 13  1  0  0  0  0 
 10 14  2  0  0  0  0 
 12 11  1  0  0  0  0 
M  END
> <Name>
Benzamide, 2-(3,3-dimethyl-1-triazenyl)- (9CI)

> <Source>
NIH3DMolFile

> <Tox>
3.536

> <CAS>
33330-89-1

$$$$

  CDK

 20 22  0  0  0  0  0  0  0  0999 V2000
   -2.5048    5.2122    6.2327 Cl  0  0  0  0  0  0  0  0  0  0  0  0
   -1.3727    4.1474    6.9758 C   0  0  0  0  0  0  0  0  0  0  0  0
   -1.2607    2.8299    6.5238 C   0  0  0  0  0  0  0  0  0  0  0  0
   -0.5731    4.6111    8.0296 C   0  0  0  0  0  0  0  0  0  0  0  0
   -0.3410    1.9903    7.1409 C   0  0  0  0  0  0  0  0  0  0  0  0
    0.3488    3.7634    8.6452 C   0  0  0  0  0  0  0  0  0  0  0  0
   -0.0995    0.6254    6.8064 N   0  0  0  0  0  0  0  0  0  0  0  0
    0.4514    2.4584    8.1890 C   0  0  0  0  0  0  0  0  0  0  0  0
   -0.8050   -0.0437    5.7635 C   0  0  0  0  0  0  0  0  0  0  0  0
    0.8901    0.0188    7.5993 C   0  0  0  0  0  0  0  0  0  0  0  0
    1.5269    1.1842    8.7836 S   0  0  0  0  0  0  0  0  0  0  0  0
    0.0122    0.1805    4.5161 C   0  0  0  0  0  0  0  0  0  0  0  0
    1.2969   -1.1319    7.5347 O   0  0  0  0  0  0  0  0  0  0  0  0
    1.0339    0.8690    4.5791 O   0  0  0  0  0  0  0  0  0  0  0  0
   -0.4576   -0.4172    3.3473 N   0  0  0  0  0  0  0  0  0  0  0  0
    0.2776   -0.2421    2.0946 C   0  0  0  0  0  0  0  0  0  0  0  0
   -1.5824   -1.3555    3.2690 C   0  0  0  0  0  0  0  0  0  0  0  0
   -0.6678    0.0569    0.9344 C   0  0  0  0  0  0  0  0  0  0  0  0
   -2.4840   -1.0366    2.0777 C   0  0  0  0  0  0  0  0  0  0  0  0
   -1.7164   -0.9598    0.8332 N   0  0  0  0  0  0  0  0  0  0  0  0
  1  2  1  0  0  0  0 
  3  2  2  0  0  0  0 
  2  4  1  0  0  0  0 
  5  3  1  0  0  0  0 
  6  4  2  0  0  0  0 
  7  5  1  0  0  0  0 
  5  8  2  0  0  0  0 
  8  6  1  0  0  0  0 
  7  9  1  0  0  0  0 
  7 10  1  0  0  0  0 
 11  8  1  0  0  0  0 
 12  9  1  0  0  0  0 
 11 10  1  0  0  0  0 
 13 10  2  0  0  0  0 
 14 12  2  0  0  0  0 
 15 12  1  0  0  0  0 
 15 16  1  0  0  0  0 
 15 17  1  0  0  0  0 
 16 18  1  0  0  0  0 
 17 19  1  0  0  0  0 
 20 18  1  0  0  0  0 
 20 19  1  0  0  0  0 
M  END
> <Name>
Piperazine, 1-((5-chloro-2-oxo-3-benzothiazolinyl)acetyl)- (8CI)

> <Source>
Chemidplus3DMolFile

> <Tox>
2.628

> <CAS>
33353-30-9

$$$$

  CDK

 21 23  0  0  0  0  0  0  0  0999 V2000
    0.9167    1.9119    0.0000 S   0  0  0  0  0  0  0  0  0  0  0  0
    2.2237    1.4101    0.0000 C   0  0  0  0  0  0  0  0  0  0  0  0
    0.9900    3.3099    0.0000 C   0  0  0  0  0  0  0  0  0  0  0  0
    3.1047    2.4981    0.0000 N   0  0  0  0  0  0  0  0  0  0  0  0
    2.5860    0.0578    0.0000 O   0  0  0  0  0  0  0  0  0  0  0  0
    2.3422    3.6723    0.0000 C   0  0  0  0  0  0  0  0  0  0  0  0
    0.0000    4.2999    0.0000 C   0  0  0  0  0  0  0  0  0  0  0  0
    4.5028    2.4249    0.0000 C   0  0  0  0  0  0  0  0  0  0  0  0
    2.7046    5.0246    0.0000 C   0  0  0  0  0  0  0  0  0  0  0  0
    0.3623    5.6522    0.0000 C   0  0  0  0  0  0  0  0  0  0  0  0
    5.2028    1.2124    0.0000 C   0  0  0  0  0  0  0  0  0  0  0  0
    1.7146    6.0145    0.0000 C   0  0  0  0  0  0  0  0  0  0  0  0
    4.5028    0.0000    0.0000 O   0  0  0  0  0  0  0  0  0  0  0  0
    6.6028    1.2124    0.0000 N   0  0  0  0  0  0  0  0  0  0  0  0
    2.0770    7.3668    0.0000 Cl  0  0  0  0  0  0  0  0  0  0  0  0
    7.3028    2.4249    0.0000 C   0  0  0  0  0  0  0  0  0  0  0  0
    7.3028    0.0000    0.0000 C   0  0  0  0  0  0  0  0  0  0  0  0
    8.7028    2.4249    0.0000 C   0  0  0  0  0  0  0  0  0  0  0  0
    8.7028    0.0000    0.0000 C   0  0  0  0  0  0  0  0  0  0  0  0
    9.4028    1.2124    0.0000 N   0  0  0  0  0  0  0  0  0  0  0  0
   10.8028    1.2124    0.0000 C   0  0  0  0  0  0  0  0  0  0  0  0
  1  2  1  0  0  0  0 
  1  3  1  0  0  0  0 
  2  4  1  0  0  0  0 
  2  5  2  0  0  0  0 
  6  3  1  0  0  0  0 
  3  7  2  0  0  0  0 
  4  6  1  0  0  0  0 
  4  8  1  0  0  0  0 
  6  9  2  0  0  0  0 
 10  7  1  0  0  0  0 
  8 11  1  0  0  0  0 
  9 12  1  0  0  0  0 
 12 10  2  0  0  0  0 
 11 13  2  0  0  0  0 
 11 14  1  0  0  0  0 
 12 15  1  0  0  0  0 
 14 16  1  0  0  0  0 
 14 17  1  0  0  0  0 
 16 18  1  0  0  0  0 
 19 17  1  0  0  0  0 
 18 20  1  0  0  0  0 
 20 19  1  0  0  0  0 
 20 21  1  0  0  0  0 
M  END
> <Name>
2-Benzothiazolinone, 5-chloro-3-(4-methylpiperazin-1-yl)carbonylmethyl-

> <Source>
Name2DMolFile

> <Tox>
2.707

> <CAS>
33354-22-2

$$$$

  CDK

 17 18  0  0  0  0  0  0  0  0999 V2000
    2.0855    0.1654    0.7247 C   0  0  0  0  0  0  0  0  0  0  0  0
    1.4874   -1.0540    0.4182 C   0  0  0  0  0  0  0  0  0  0  0  0
    1.3022    1.3200    0.7822 C   0  0  0  0  0  0  0  0  0  0  0  0
    3.5511    0.2348    1.0094 C   0  0  0  0  0  0  0  0  0  0  0  0
    0.1168   -1.1128    0.1703 C   0  0  0  0  0  0  0  0  0  0  0  0
   -0.0614    1.2515    0.5327 C   0  0  0  0  0  0  0  0  0  0  0  0
    4.3143    0.6446   -0.2299 C   0  0  0  0  0  0  0  0  0  0  0  0
   -0.6791    0.0356    0.2228 C   0  0  0  0  0  0  0  0  0  0  0  0
   -0.5379   -2.6290   -0.1947 Cl  0  0  0  0  0  0  0  0  0  0  0  0
    4.5642    1.7650   -0.6353 O   0  0  0  0  0  0  0  0  0  0  0  0
    4.7937   -0.3764   -0.9778 O   0  0  0  0  0  0  0  0  0  0  0  0
   -2.1575   -0.0201   -0.0436 C   0  0  0  0  0  0  0  0  0  0  0  0
   -2.9509    0.4228    1.1886 C   0  0  0  0  0  0  0  0  0  0  0  0
   -2.5268    0.8400   -1.2552 C   0  0  0  0  0  0  0  0  0  0  0  0
   -4.4456    0.3650    0.9143 C   0  0  0  0  0  0  0  0  0  0  0  0
   -4.0231    0.7808   -1.5200 C   0  0  0  0  0  0  0  0  0  0  0  0
   -4.8134    1.2114   -0.2943 C   0  0  0  0  0  0  0  0  0  0  0  0
  1  2  1  0  0  0  0 
  1  3  2  0  0  0  0 
  1  4  1  0  0  0  0 
  2  5  2  0  0  0  0 
  6  3  1  0  0  0  0 
  7  4  1  0  0  0  0 
  5  8  1  0  0  0  0 
  5  9  1  0  0  0  0 
  8  6  2  0  0  0  0 
  7 10  2  0  0  0  0 
  7 11  1  0  0  0  0 
  8 12  1  0  0  0  0 
 12 13  1  0  0  0  0 
 12 14  1  0  0  0  0 
 13 15  1  0  0  0  0 
 16 14  1  0  0  0  0 
 15 17  1  0  0  0  0 
 17 16  1  0  0  0  0 
M  END
> <Name>
Benzeneacetic acid, 3-chloro-4-cyclohexyl-

> <Source>
DougDB3DMolFile

> <Tox>
3.484

> <CAS>
33433-85-1

$$$$

  CDK

 22 25  0  0  0  0  0  0  0  0999 V2000
    1.3994    1.8203    1.6850 Cl  0  0  0  0  0  0  0  0  0  0  0  0
    0.2354    0.6061    2.0496 C   0  0  0  0  0  0  0  0  0  0  0  0
   -0.1630    0.3943    3.3677 C   0  0  0  0  0  0  0  0  0  0  0  0
   -0.3097   -0.1639    1.0281 C   0  0  0  0  0  0  0  0  0  0  0  0
   -1.1169   -0.5891    3.6614 C   0  0  0  0  0  0  0  0  0  0  0  0
   -1.2492   -1.1541    1.3230 C   0  0  0  0  0  0  0  0  0  0  0  0
   -1.6588   -1.3821    2.6461 C   0  0  0  0  0  0  0  0  0  0  0  0
   -1.5839   -0.8589    5.0356 C   0  0  0  0  0  0  0  0  0  0  0  0
   -2.5938   -2.3987    2.9935 N   0  0  0  0  0  0  0  0  0  0  0  0
   -2.4226   -1.8051    5.3151 N   0  0  0  0  0  0  0  0  0  0  0  0
   -1.1058   -0.0412    6.1672 C   0  0  0  0  0  0  0  0  0  0  0  0
   -3.1654   -3.2352    1.9412 C   0  0  0  0  0  0  0  0  0  0  0  0
   -2.9578   -2.6152    4.3362 C   0  0  0  0  0  0  0  0  0  0  0  0
   -1.8030    1.1050    6.5335 C   0  0  0  0  0  0  0  0  0  0  0  0
    0.0378   -0.4254    6.8589 C   0  0  0  0  0  0  0  0  0  0  0  0
   -2.3176   -4.4732    1.7029 C   0  0  0  0  0  0  0  0  0  0  0  0
   -3.7471   -3.5085    4.6514 O   0  0  0  0  0  0  0  0  0  0  0  0
   -1.3512    1.8762    7.6043 C   0  0  0  0  0  0  0  0  0  0  0  0
    0.4896    0.3459    7.9298 C   0  0  0  0  0  0  0  0  0  0  0  0
   -2.7486   -5.4203    0.6457 C   0  0  0  0  0  0  0  0  0  0  0  0
   -2.8796   -5.7891    2.0944 C   0  0  0  0  0  0  0  0  0  0  0  0
   -0.2048    1.4967    8.3025 C   0  0  0  0  0  0  0  0  0  0  0  0
  1  2  1  0  0  0  0 
  3  2  2  0  0  0  0 
  4  2  1  0  0  0  0 
  5  3  1  0  0  0  0 
  6  4  2  0  0  0  0 
  7  5  2  0  0  0  0 
  5  8  1  0  0  0  0 
  7  6  1  0  0  0  0 
  9  7  1  0  0  0  0 
 10  8  2  0  0  0  0 
  8 11  1  0  0  0  0 
  9 12  1  0  0  0  0 
  9 13  1  0  0  0  0 
 10 13  1  0  0  0  0 
 11 14  2  0  0  0  0 
 11 15  1  0  0  0  0 
 16 12  1  0  0  0  0 
 17 13  2  0  0  0  0 
 14 18  1  0  0  0  0 
 15 19  2  0  0  0  0 
 16 20  1  0  0  0  0 
 16 21  1  0  0  0  0 
 18 22  2  0  0  0  0 
 19 22  1  0  0  0  0 
 20 21  1  0  0  0  0 
M  END
> <Name>
2(1H)-Quinazolinone, 6-chloro-1-(cyclopropylmethyl)-4-phenyl-

> <Source>
Chemidplus3DMolFile

> <Tox>
2.191

> <CAS>
33453-19-9

$$$$

  CDK

 20 21  0  0  0  0  0  0  0  0999 V2000
    2.1547   -3.3133   -0.4388 O   0  0  0  0  0  0  0  0  0  0  0  0
    1.0751   -3.4054    0.1438 C   0  0  0  0  0  0  0  0  0  0  0  0
    0.5524   -4.5830    0.6601 N   0  0  0  0  0  0  0  0  0  0  0  0
    0.2282   -2.1986    0.3235 C   0  0  0  0  0  0  0  0  0  0  0  0
   -0.6764   -4.6227    1.4567 C   0  0  0  0  0  0  0  0  0  0  0  0
    1.3402   -5.8269    0.6053 C   0  0  0  0  0  0  0  0  0  0  0  0
   -0.9962   -2.2761    0.8580 C   0  0  0  0  0  0  0  0  0  0  0  0
    0.6585   -0.8697   -0.1305 C   0  0  0  0  0  0  0  0  0  0  0  0
   -1.5531   -3.4459    1.3384 N   0  0  0  0  0  0  0  0  0  0  0  0
   -0.2944   -4.8987    2.9258 C   0  0  0  0  0  0  0  0  0  0  0  0
    1.0010   -6.7652    1.7774 C   0  0  0  0  0  0  0  0  0  0  0  0
    1.1469   -6.5340   -0.7347 C   0  0  0  0  0  0  0  0  0  0  0  0
    2.0063   -0.7880   -0.0072 O   0  0  0  0  0  0  0  0  0  0  0  0
   -0.1108   -0.0179   -0.5405 O   0  0  0  0  0  0  0  0  0  0  0  0
   -2.8904   -3.5707    1.7518 C   0  0  0  0  0  0  0  0  0  0  0  0
    0.7978   -5.9705    3.0665 C   0  0  0  0  0  0  0  0  0  0  0  0
    2.5810    0.4586   -0.4128 C   0  0  0  0  0  0  0  0  0  0  0  0
   -3.3804   -4.6204    2.1801 O   0  0  0  0  0  0  0  0  0  0  0  0
   -3.7685   -2.3449    1.6495 C   0  0  0  0  0  0  0  0  0  0  0  0
    4.0809    0.3967   -0.2178 C   0  0  0  0  0  0  0  0  0  0  0  0
  1  2  2  0  0  0  0 
  3  2  1  0  0  0  0 
  2  4  1  0  0  0  0 
  3  5  1  0  0  0  0 
  3  6  1  0  0  0  0 
  7  4  2  0  0  0  0 
  4  8  1  0  0  0  0 
  9  5  1  0  0  0  0 
  5 10  1  0  0  0  0 
  6 11  1  0  0  0  0 
  6 12  1  0  0  0  0 
  9  7  1  0  0  0  0 
 13  8  1  0  0  0  0 
 14  8  2  0  0  0  0 
  9 15  1  0  0  0  0 
 10 16  1  0  0  0  0 
 11 16  1  0  0  0  0 
 13 17  1  0  0  0  0 
 18 15  2  0  0  0  0 
 15 19  1  0  0  0  0 
 17 20  1  0  0  0  0 
M  END
> <Name>
4H-Pyrido(1,2-a)pyrimidine-3-carboxylic acid, 1,6,7,8,9,9a-hexahydro-1-acetyl-6-methyl-4-oxo-, ethyl ester

> <Source>
Chemidplus3DMolFile

> <Tox>
2.051

> <CAS>
33499-10-4

$$$$

  CDK

 21 22  0  0  0  0  0  0  0  0999 V2000
   -0.2565    2.5634   -0.3852 O   0  0  0  0  0  0  0  0  0  0  0  0
    0.0705    2.3424   -1.5505 C   0  0  0  0  0  0  0  0  0  0  0  0
    0.2049    3.3118   -2.5379 N   0  0  0  0  0  0  0  0  0  0  0  0
    0.3414    0.9470   -1.9816 C   0  0  0  0  0  0  0  0  0  0  0  0
    0.7710    3.0113   -3.8616 C   0  0  0  0  0  0  0  0  0  0  0  0
    0.0956    4.7389   -2.1853 C   0  0  0  0  0  0  0  0  0  0  0  0
    0.6281    0.6488   -3.2537 C   0  0  0  0  0  0  0  0  0  0  0  0
    0.2555   -0.1866   -1.0512 C   0  0  0  0  0  0  0  0  0  0  0  0
    0.7526    1.5921   -4.2545 N   0  0  0  0  0  0  0  0  0  0  0  0
    2.1957    3.5955   -3.9227 C   0  0  0  0  0  0  0  0  0  0  0  0
    1.4829    5.3936   -2.2863 C   0  0  0  0  0  0  0  0  0  0  0  0
   -0.9627    5.4622   -3.0192 C   0  0  0  0  0  0  0  0  0  0  0  0
    0.6243    0.2393    0.1820 O   0  0  0  0  0  0  0  0  0  0  0  0
   -0.0949   -1.3051   -1.3855 O   0  0  0  0  0  0  0  0  0  0  0  0
    0.8948    1.2801   -5.6178 C   0  0  0  0  0  0  0  0  0  0  0  0
    2.1829    5.0961   -3.6148 C   0  0  0  0  0  0  0  0  0  0  0  0
    0.5928   -0.7597    1.2066 C   0  0  0  0  0  0  0  0  0  0  0  0
    1.0056    2.1297   -6.5074 O   0  0  0  0  0  0  0  0  0  0  0  0
    0.8985   -0.1817   -6.0015 C   0  0  0  0  0  0  0  0  0  0  0  0
    1.0271   -0.1367    2.5162 C   0  0  0  0  0  0  0  0  0  0  0  0
    1.0237   -0.3176   -7.4983 C   0  0  0  0  0  0  0  0  0  0  0  0
  1  2  2  0  0  0  0 
  3  2  1  0  0  0  0 
  2  4  1  0  0  0  0 
  3  5  1  0  0  0  0 
  3  6  1  0  0  0  0 
  7  4  2  0  0  0  0 
  4  8  1  0  0  0  0 
  9  5  1  0  0  0  0 
  5 10  1  0  0  0  0 
  6 11  1  0  0  0  0 
  6 12  1  0  0  0  0 
  9  7  1  0  0  0  0 
 13  8  1  0  0  0  0 
 14  8  2  0  0  0  0 
  9 15  1  0  0  0  0 
 10 16  1  0  0  0  0 
 11 16  1  0  0  0  0 
 13 17  1  0  0  0  0 
 18 15  2  0  0  0  0 
 15 19  1  0  0  0  0 
 17 20  1  0  0  0  0 
 19 21  1  0  0  0  0 
M  END
> <Name>
4H-Pyrido(1,2-a)pyrimidine-3-carboxylic acid, 1,6,7,8,9,9a-hexahydro-6-methyl-4-oxo-1-propionyl-, ethyl ester

> <Source>
Chemidplus3DMolFile

> <Tox>
1.996

> <CAS>
33499-11-5

$$$$

  CDK

 18 18  0  0  0  0  0  0  0  0999 V2000
    8.0660    1.4000    0.0000 P   0  0  0  0  0  0  0  0  0  0  0  0
    8.0660    2.8000    0.0000 O   0  0  0  0  0  0  0  0  0  0  0  0
    9.4660    1.4000    0.0000 O   0  0  0  0  0  0  0  0  0  0  0  0
    6.6660    1.4000    0.0000 S   0  0  0  0  0  0  0  0  0  0  0  0
    8.0660    0.0000    0.0000 S   0  0  0  0  0  0  0  0  0  0  0  0
    9.2784    3.5000    0.0000 C   0  0  0  0  0  0  0  0  0  0  0  0
   10.1660    0.1876    0.0000 C   0  0  0  0  0  0  0  0  0  0  0  0
    5.9660    2.6124    0.0000 C   0  0  0  0  0  0  0  0  0  0  0  0
    9.2784    4.9000    0.0000 C   0  0  0  0  0  0  0  0  0  0  0  0
   11.5660    0.1876    0.0000 C   0  0  0  0  0  0  0  0  0  0  0  0
    4.5660    2.6124    0.0000 C   0  0  0  0  0  0  0  0  0  0  0  0
    3.7431    3.7451    0.0000 O   0  0  0  0  0  0  0  0  0  0  0  0
    3.7431    1.4798    0.0000 N   0  0  0  0  0  0  0  0  0  0  0  0
    2.4116    3.3124    0.0000 C   0  0  0  0  0  0  0  0  0  0  0  0
    2.4116    1.9124    0.0000 N   0  0  0  0  0  0  0  0  0  0  0  0
    1.2790    4.1353    0.0000 C   0  0  0  0  0  0  0  0  0  0  0  0
    0.0000    3.5659    0.0000 C   0  0  0  0  0  0  0  0  0  0  0  0
    1.4253    5.5277    0.0000 C   0  0  0  0  0  0  0  0  0  0  0  0
  1  2  1  0  0  0  0 
  1  3  1  0  0  0  0 
  1  4  1  0  0  0  0 
  1  5  2  0  0  0  0 
  2  6  1  0  0  0  0 
  3  7  1  0  0  0  0 
  4  8  1  0  0  0  0 
  6  9  1  0  0  0  0 
  7 10  1  0  0  0  0 
  8 11  1  0  0  0  0 
 12 11  1  0  0  0  0 
 11 13  2  0  0  0  0 
 12 14  1  0  0  0  0 
 13 15  1  0  0  0  0 
 15 14  2  0  0  0  0 
 14 16  1  0  0  0  0 
 16 17  1  0  0  0  0 
 16 18  1  0  0  0  0 
M  END
> <Name>
Phosphorodithioic acid, O,O-diethyl S-((5-(1-methylethyl)-1,3,4-oxadiazol-2-yl)methyl) ester

> <Source>
Name2DMolFile

> <Tox>
3.667

> <CAS>
33575-75-6

$$$$

  CDK

 17 17  0  0  0  0  0  0  0  0999 V2000
    1.9789    1.2709   -1.9311 S   0  0  0  0  0  0  0  0  0  0  0  0
    2.6560    0.9051    0.0525 P   0  0  0  0  0  0  0  0  0  0  0  0
    2.7843    2.8038   -2.4375 C   0  0  0  0  0  0  0  0  0  0  0  0
    2.4944    2.3402    1.3807 S   0  0  0  0  0  0  0  0  0  0  0  0
    1.9453   -0.4816    0.5488 O   0  0  0  0  0  0  0  0  0  0  0  0
    4.1881    0.3452   -0.0621 O   0  0  0  0  0  0  0  0  0  0  0  0
    4.2794    2.6694   -2.4040 C   0  0  0  0  0  0  0  0  0  0  0  0
    0.5506   -0.5219    0.8012 C   0  0  0  0  0  0  0  0  0  0  0  0
    4.4968   -0.7248   -0.9400 C   0  0  0  0  0  0  0  0  0  0  0  0
    4.8498    2.2369   -3.5444 O   0  0  0  0  0  0  0  0  0  0  0  0
    5.0859    2.9116   -1.4246 N   0  0  0  0  0  0  0  0  0  0  0  0
    0.1697   -1.9187    1.2432 C   0  0  0  0  0  0  0  0  0  0  0  0
    5.9759   -1.0319   -0.8421 C   0  0  0  0  0  0  0  0  0  0  0  0
    6.1563    2.2327   -3.1627 C   0  0  0  0  0  0  0  0  0  0  0  0
    6.3424    2.6226   -1.9233 N   0  0  0  0  0  0  0  0  0  0  0  0
    7.1389    1.8069   -4.1672 C   0  0  0  0  0  0  0  0  0  0  0  0
    7.4117    0.2952   -4.1383 C   0  0  0  0  0  0  0  0  0  0  0  0
  1  2  1  0  0  0  0 
  1  3  1  0  0  0  0 
  4  2  2  0  0  0  0 
  2  5  1  0  0  0  0 
  2  6  1  0  0  0  0 
  3  7  1  0  0  0  0 
  5  8  1  0  0  0  0 
  6  9  1  0  0  0  0 
 10  7  1  0  0  0  0 
 11  7  2  0  0  0  0 
  8 12  1  0  0  0  0 
  9 13  1  0  0  0  0 
 10 14  1  0  0  0  0 
 11 15  1  0  0  0  0 
 15 14  2  0  0  0  0 
 16 14  1  0  0  0  0 
 16 17  1  0  0  0  0 
M  END
> <Name>
Phosphorodithioic acid, O,O-diethyl S-((5-ethyl-1,3,4-oxadiazol-2-yl)methyl) ester

> <Source>
Chemidplus3DMolFile

> <Tox>
4.442

> <CAS>
33575-76-7

$$$$

  CDK

 23 25  0  0  0  0  0  0  0  0999 V2000
   -4.0982   -1.9304   -2.1420 O   0  0  0  0  0  0  0  0  0  0  0  0
   -3.6206   -0.9315   -2.6825 C   0  0  0  0  0  0  0  0  0  0  0  0
   -2.4307   -0.9208   -3.3943 N   0  0  0  0  0  0  0  0  0  0  0  0
   -4.3438    0.3895   -2.5979 C   0  0  0  0  0  0  0  0  0  0  0  0
   -1.6868   -2.1399   -3.7316 C   0  0  0  0  0  0  0  0  0  0  0  0
   -1.8401    0.2455   -4.0448 C   0  0  0  0  0  0  0  0  0  0  0  0
   -3.3622    1.3973   -1.9012 C   0  0  0  0  0  0  0  0  0  0  0  0
   -5.6249    0.1179   -1.7633 C   0  0  0  0  0  0  0  0  0  0  0  0
   -4.7278    0.9795   -3.9783 C   0  0  0  0  0  0  0  0  0  0  0  0
   -0.4903   -1.6400   -4.5522 C   0  0  0  0  0  0  0  0  0  0  0  0
   -1.2218   -2.9315   -2.5144 C   0  0  0  0  0  0  0  0  0  0  0  0
   -0.9955   -0.3420   -5.1632 C   0  0  0  0  0  0  0  0  0  0  0  0
   -2.8267    0.9533   -0.5381 C   0  0  0  0  0  0  0  0  0  0  0  0
   -6.8295    0.4193   -2.3309 C   0  0  0  0  0  0  0  0  0  0  0  0
   -5.4700   -0.4064   -0.5123 C   0  0  0  0  0  0  0  0  0  0  0  0
   -4.8235    2.3385   -4.0886 C   0  0  0  0  0  0  0  0  0  0  0  0
   -4.9485    0.1075   -5.0075 C   0  0  0  0  0  0  0  0  0  0  0  0
   -7.9803    0.1752   -1.5815 C   0  0  0  0  0  0  0  0  0  0  0  0
   -6.6209   -0.6506    0.2370 C   0  0  0  0  0  0  0  0  0  0  0  0
   -5.1689    2.8697   -5.3312 C   0  0  0  0  0  0  0  0  0  0  0  0
   -5.2937    0.6389   -6.2502 C   0  0  0  0  0  0  0  0  0  0  0  0
   -7.8761   -0.3598   -0.2977 C   0  0  0  0  0  0  0  0  0  0  0  0
   -5.4039    2.0200   -6.4119 C   0  0  0  0  0  0  0  0  0  0  0  0
  1  2  2  0  0  0  0 
  3  2  1  0  0  0  0 
  4  2  1  0  0  0  0 
  3  5  1  0  0  0  0 
  3  6  1  0  0  0  0 
  4  7  1  0  0  0  0 
  4  8  1  0  0  0  0 
  4  9  1  0  0  0  0 
  5 10  1  0  0  0  0 
  5 11  1  0  0  0  0 
  6 12  1  0  0  0  0 
  7 13  1  0  0  0  0 
  8 14  2  0  0  0  0 
  8 15  1  0  0  0  0 
  9 16  2  0  0  0  0 
  9 17  1  0  0  0  0 
 10 12  1  0  0  0  0 
 14 18  1  0  0  0  0 
 15 19  2  0  0  0  0 
 16 20  1  0  0  0  0 
 17 21  2  0  0  0  0 
 18 22  2  0  0  0  0 
 19 22  1  0  0  0  0 
 20 23  2  0  0  0  0 
 21 23  1  0  0  0  0 
M  END
> <Name>
Pyrrolidine, 2-methyl-1-(1-oxo-2,2-diphenylbutyl)- (9CI)

> <Source>
Chemidplus3DMolFile

> <Tox>
2.975

> <CAS>
34067-03-3

$$$$

  CDK

 21 24  0  0  0  0  0  0  0  0999 V2000
    2.6345    2.2353    0.0000 C   0  0  0  0  0  0  0  0  0  0  0  0
    3.3929    2.4748    0.0000 C   0  0  0  0  0  0  0  0  0  0  0  0
    2.7942    0.7983    0.0000 C   0  0  0  0  0  0  0  0  0  0  0  0
    3.5925    3.4727    0.0000 C   0  0  0  0  0  0  0  0  0  0  0  0
    1.1576    3.0337    0.0000 C   0  0  0  0  0  0  0  0  0  0  0  0
    1.8362    2.0357    0.0000 C   0  0  0  0  0  0  0  0  0  0  0  0
    3.3929    0.2395    0.0000 C   0  0  0  0  0  0  0  0  0  0  0  0
    2.5946    0.0000    0.0000 O   0  0  0  0  0  0  0  0  0  0  0  0
    3.9517    2.7542    0.0000 C   0  0  0  0  0  0  0  0  0  0  0  0
    3.2731    4.1912    0.0000 C   0  0  0  0  0  0  0  0  0  0  0  0
    4.3908    3.3929    0.0000 C   0  0  0  0  0  0  0  0  0  0  0  0
    0.9580    3.7921    0.0000 O   0  0  0  0  0  0  0  0  0  0  0  0
    0.7584    2.3551    0.0000 C   0  0  0  0  0  0  0  0  0  0  0  0
    2.4748    4.1114    0.0000 O   0  0  0  0  0  0  0  0  0  0  0  0
    4.7101    2.6744    0.0000 O   0  0  0  0  0  0  0  0  0  0  0  0
    3.7521    4.8698    0.0000 C   0  0  0  0  0  0  0  0  0  0  0  0
    4.8698    4.0316    0.0000 C   0  0  0  0  0  0  0  0  0  0  0  0
    0.0000    2.1156    0.0000 O   0  0  0  0  0  0  0  0  0  0  0  0
    4.5505    4.7501    0.0000 C   0  0  0  0  0  0  0  0  0  0  0  0
    5.6681    3.9517    0.0000 O   0  0  0  0  0  0  0  0  0  0  0  0
    5.0295    5.4286    0.0000 C   0  0  0  0  0  0  0  0  0  0  0  0
  1  2  1  0  0  0  0 
  3  1  1  0  0  0  0 
  1  4  1  0  0  0  0 
  1  5  1  0  0  0  0 
  6  3  1  0  0  0  0 
  7  3  1  0  0  0  0 
  3  8  1  0  0  0  0 
  4  9  1  0  0  0  0 
  4 10  1  0  0  0  0 
  4 11  1  0  0  0  0 
  5 12  1  0  0  0  0 
  5 13  1  0  0  0  0 
 13  6  1  0  0  0  0 
 14  6  1  0  0  0  0 
  8  7  1  0  0  0  0 
  9 15  1  0  0  0  0 
 10 14  1  0  0  0  0 
 16 10  1  0  0  0  0 
 11 17  1  0  0  0  0 
 13 18  1  0  0  0  0 
 19 16  2  0  0  0  0 
 17 19  1  0  0  0  0 
 17 20  1  0  0  0  0 
 19 21  1  0  0  0  0 
M  END
> <Name>
Trichothec-9-ene-3,4,8,15-tetrol, 12,13-epoxy-, (3alpha,4beta,8alpha)-

> <Source>
NIST2DMolFile

> <Tox>
3.908

> <CAS>
34114-99-3

$$$$

  CDK

 15 15  0  0  0  0  0  0  0  0999 V2000
    0.9572    0.0000    0.0000 C   0  0  0  0  0  0  0  0  0  0  0  0
    0.9572    0.9572    0.0000 C   0  0  0  0  0  0  0  0  0  0  0  0
    0.0000    1.4106    0.0000 C   0  0  0  0  0  0  0  0  0  0  0  0
    1.8640    1.4106    0.0000 C   0  0  0  0  0  0  0  0  0  0  0  0
    2.8212    0.9572    0.0000 C   0  0  0  0  0  0  0  0  0  0  0  0
    1.8640    2.3174    0.0000 C   0  0  0  0  0  0  0  0  0  0  0  0
    3.7281    1.4106    0.0000 C   0  0  0  0  0  0  0  0  0  0  0  0
    2.8212    2.7709    0.0000 C   0  0  0  0  0  0  0  0  0  0  0  0
    3.7281    2.3174    0.0000 C   0  0  0  0  0  0  0  0  0  0  0  0
    4.6349    2.7709    0.0000 N   0  0  0  0  0  0  0  0  0  0  0  0
    5.5921    2.3174    0.0000 C   0  0  0  0  0  0  0  0  0  0  0  0
    5.5921    1.4106    0.0000 O   0  0  0  0  0  0  0  0  0  0  0  0
    6.4989    2.7709    0.0000 N   0  0  0  0  0  0  0  0  0  0  0  0
    7.4561    2.3174    0.0000 C   0  0  0  0  0  0  0  0  0  0  0  0
    6.4989    3.7281    0.0000 C   0  0  0  0  0  0  0  0  0  0  0  0
  1  2  1  0  0  0  0 
  2  3  1  0  0  0  0 
  2  4  1  0  0  0  0 
  5  4  2  0  0  0  0 
  4  6  1  0  0  0  0 
  7  5  1  0  0  0  0 
  6  8  2  0  0  0  0 
  9  7  2  0  0  0  0 
  8  9  1  0  0  0  0 
  9 10  1  0  0  0  0 
 11 10  1  0  0  0  0 
 12 11  2  0  0  0  0 
 11 13  1  0  0  0  0 
 13 14  1  0  0  0  0 
 13 15  1  0  0  0  0 
M  END
> <Name>
Urea, 1,1-dimethyl-3-(p-isopropylphenyl)-

> <Source>
NIST2DMolFile

> <Tox>
2.053

> <CAS>
34123-59-6

$$$$

  CDK

 19 21  0  0  0  0  0  0  0  0999 V2000
    4.6516   -3.4479    0.0000 C   0  0  0  0  0  0  0  0  0  0  0  0
    3.9886   -2.2952    0.0000 C   0  0  0  0  0  0  0  0  0  0  0  0
    5.9880   -3.4479    0.0000 C   0  0  0  0  0  0  0  0  0  0  0  0
    2.6625   -2.2952    0.0000 C   0  0  0  0  0  0  0  0  0  0  0  0
    4.6516   -1.1425    0.0000 C   0  0  0  0  0  0  0  0  0  0  0  0
    6.6510   -2.2952    0.0000 C   0  0  0  0  0  0  0  0  0  0  0  0
    6.8755   -4.4374    0.0000 C   0  0  0  0  0  0  0  0  0  0  0  0
    1.9994   -3.4479    0.0000 C   0  0  0  0  0  0  0  0  0  0  0  0
    1.9994   -1.1425    0.0000 C   0  0  0  0  0  0  0  0  0  0  0  0
    3.9886   -0.0000    0.0000 Cl  0  0  0  0  0  0  0  0  0  0  0  0
    5.9880   -1.1425    0.0000 C   0  0  0  0  0  0  0  0  0  0  0  0
    7.9466   -2.5706    0.0000 C   0  0  0  0  0  0  0  0  0  0  0  0
    8.0894   -3.8968    0.0000 C   0  0  0  0  0  0  0  0  0  0  0  0
    0.6631   -3.4479    0.0000 C   0  0  0  0  0  0  0  0  0  0  0  0
    0.6631   -1.1425    0.0000 C   0  0  0  0  0  0  0  0  0  0  0  0
    8.9361   -1.6832    0.0000 C   0  0  0  0  0  0  0  0  0  0  0  0
    0.0000   -2.2952    0.0000 C   0  0  0  0  0  0  0  0  0  0  0  0
    8.6606   -0.3876    0.0000 O   0  0  0  0  0  0  0  0  0  0  0  0
   10.2010   -2.0912    0.0000 O   0  0  0  0  0  0  0  0  0  0  0  0
  1  2  2  0  0  0  0 
  1  3  1  0  0  0  0 
  2  4  1  0  0  0  0 
  2  5  1  0  0  0  0 
  6  3  2  0  0  0  0 
  3  7  1  0  0  0  0 
  4  8  1  0  0  0  0 
  4  9  1  0  0  0  0 
  5 10  1  0  0  0  0 
  5 11  2  0  0  0  0 
 11  6  1  0  0  0  0 
  6 12  1  0  0  0  0 
  7 13  1  0  0  0  0 
  8 14  1  0  0  0  0 
 15  9  1  0  0  0  0 
 13 12  1  0  0  0  0 
 12 16  1  0  0  0  0 
 14 17  1  0  0  0  0 
 17 15  1  0  0  0  0 
 16 18  2  0  0  0  0 
 16 19  1  0  0  0  0 
M  END
> <Name>
1H-Indene-1-carboxylic acid, 6-chloro-5-cyclohexyl-2,3-dihydro- (9CI)

> <Source>
DSSTox2DMolFile

> <Tox>
3.832

> <CAS>
34148-01-1

$$$$

  CDK

 20 20  0  0  0  0  0  0  0  0999 V2000
    1.7619   -0.7125    0.0000 C   0  0  0  0  0  0  0  0  0  0  0  0
    2.4764   -0.3000    0.0000 C   0  0  0  0  0  0  0  0  0  0  0  0
    1.0475   -0.3000    0.0000 C   0  0  0  0  0  0  0  0  0  0  0  0
    3.1909   -0.7125    0.0000 C   0  0  0  0  0  0  0  0  0  0  0  0
    2.4764    0.5250    0.0000 C   0  0  0  0  0  0  0  0  0  0  0  0
    1.0475    0.5250    0.0000 C   0  0  0  0  0  0  0  0  0  0  0  0
    0.3330   -0.7125    0.0000 O   0  0  0  0  0  0  0  0  0  0  0  0
    1.7619    0.9375    0.0000 C   0  0  0  0  0  0  0  0  0  0  0  0
   -0.3815   -0.3000    0.0000 C   0  0  0  0  0  0  0  0  0  0  0  0
    1.7619    1.7625    0.0000 C   0  0  0  0  0  0  0  0  0  0  0  0
   -0.3815    0.5250    0.0000 O   0  0  0  0  0  0  0  0  0  0  0  0
   -1.0959   -0.7125    0.0000 N   0  0  0  0  0  0  0  0  0  0  0  0
    0.9369    1.7625    0.0000 C   0  0  0  0  0  0  0  0  0  0  0  0
    1.7619    2.5875    0.0000 C   0  0  0  0  0  0  0  0  0  0  0  0
   -1.0959   -1.5375    0.0000 C   0  0  0  0  0  0  0  0  0  0  0  0
   -1.8104   -0.3000    0.0000 C   0  0  0  0  0  0  0  0  0  0  0  0
   -1.8104    0.5250    0.0000 O   0  0  0  0  0  0  0  0  0  0  0  0
   -2.5249   -0.7125    0.0000 C   0  0  0  0  0  0  0  0  0  0  0  0
   -3.2394   -1.1250    0.0000 C   0  0  0  0  0  0  0  0  0  0  0  0
   -3.9538   -1.5375    0.0000 C   0  0  0  0  0  0  0  0  0  0  0  0
  1  2  1  0  0  0  0 
  1  3  2  0  0  0  0 
  2  4  1  0  0  0  0 
  2  5  2  0  0  0  0 
  6  3  1  0  0  0  0 
  3  7  1  0  0  0  0 
  5  8  1  0  0  0  0 
  8  6  2  0  0  0  0 
  7  9  1  0  0  0  0 
  8 10  1  0  0  0  0 
  9 11  2  0  0  0  0 
  9 12  1  0  0  0  0 
 10 13  1  0  0  0  0 
 10 14  1  0  0  0  0 
 12 15  1  0  0  0  0 
 12 16  1  0  0  0  0 
 16 17  2  0  0  0  0 
 16 18  1  0  0  0  0 
 18 19  1  0  0  0  0 
 19 20  1  0  0  0  0 
M  END
> <Name>
Carbamic acid, methyl(1-oxobutyl)-, 3-methyl-5-(1-methylethyl)phenyl ester (9CI)

> <Source>
Smiles

> <Tox>
2.357

> <CAS>
34264-24-9

$$$$

  CDK

 12 12  0  0  0  0  0  0  0  0999 V2000
    2.2755    0.1574    0.0492 C   0  0  0  0  0  0  0  0  0  0  0  0
    3.6218   -0.4430    0.2538 C   0  0  0  0  0  0  0  0  0  0  0  0
    2.0856    1.2716   -0.4192 O   0  0  0  0  0  0  0  0  0  0  0  0
    1.1852   -0.6390    0.4820 N   0  0  0  0  0  0  0  0  0  0  0  0
    4.6757   -0.0601   -0.4599 C   0  0  0  0  0  0  0  0  0  0  0  0
   -0.2069   -0.3522    0.2554 C   0  0  0  0  0  0  0  0  0  0  0  0
   -0.7324    0.9281    0.4606 C   0  0  0  0  0  0  0  0  0  0  0  0
   -1.0537   -1.4074   -0.1174 C   0  0  0  0  0  0  0  0  0  0  0  0
   -2.0907    1.1568    0.2821 C   0  0  0  0  0  0  0  0  0  0  0  0
   -2.4115   -1.1892   -0.2892 C   0  0  0  0  0  0  0  0  0  0  0  0
   -2.9280    0.0991   -0.0920 C   0  0  0  0  0  0  0  0  0  0  0  0
   -4.2758    0.2435   -0.2834 O   0  0  0  0  0  0  0  0  0  0  0  0
  1  2  1  0  0  0  0 
  1  3  2  0  0  0  0 
  1  4  1  0  0  0  0 
  2  5  2  0  0  0  0 
  4  6  1  0  0  0  0 
  6  7  1  0  0  0  0 
  6  8  2  0  0  0  0 
  7  9  2  0  0  0  0 
 10  8  1  0  0  0  0 
  9 11  1  0  0  0  0 
 11 10  2  0  0  0  0 
 11 12  1  0  0  0  0 
M  END
> <Name>
2-Propenamide, N-(4-hydroxyphenyl)- (9CI)

> <Source>
DougDB3DMolFile

> <Tox>
2.244

> <CAS>
34443-04-4

$$$$

  CDK

 13 12  0  0  0  0  0  0  0  0999 V2000
   -1.5495   -1.8433   -4.4438 O   0  0  0  0  0  0  0  0  0  0  0  0
   -2.1329   -1.9275   -5.7482 C   0  0  0  0  0  0  0  0  0  0  0  0
   -2.4071   -2.0535   -3.3998 C   0  0  0  0  0  0  0  0  0  0  0  0
   -1.0589   -1.6720   -6.7880 C   0  0  0  0  0  0  0  0  0  0  0  0
   -3.6007   -2.3009   -3.4967 O   0  0  0  0  0  0  0  0  0  0  0  0
   -1.6320   -1.9496   -2.1096 C   0  0  0  0  0  0  0  0  0  0  0  0
   -0.5291   -0.3659   -6.5967 O   0  0  0  0  0  0  0  0  0  0  0  0
   -2.4088   -2.1875   -0.8301 C   0  0  0  0  0  0  0  0  0  0  0  0
    0.4565    0.0092   -7.4670 C   0  0  0  0  0  0  0  0  0  0  0  0
   -3.6177   -2.4115   -0.8070 O   0  0  0  0  0  0  0  0  0  0  0  0
   -1.6150   -2.1087    0.4491 C   0  0  0  0  0  0  0  0  0  0  0  0
    0.9111   -0.6704   -8.3772 O   0  0  0  0  0  0  0  0  0  0  0  0
    0.9155    1.3997   -7.1477 C   0  0  0  0  0  0  0  0  0  0  0  0
  1  2  1  0  0  0  0 
  1  3  1  0  0  0  0 
  2  4  1  0  0  0  0 
  5  3  2  0  0  0  0 
  6  3  1  0  0  0  0 
  7  4  1  0  0  0  0 
  6  8  1  0  0  0  0 
  7  9  1  0  0  0  0 
 10  8  2  0  0  0  0 
  8 11  1  0  0  0  0 
 12  9  2  0  0  0  0 
  9 13  1  0  0  0  0 
M  END
> <Name>
Butanoic acid, 3-oxo-, 2-(acetyloxy)ethyl ester

> <Source>
Chemidplus3DMolFile

> <Tox>
1.197

> <CAS>
34500-18-0

$$$$

  CDK

 17 19  0  0  0  0  0  0  0  0999 V2000
   -0.1133   -0.5419    7.2673 O   0  0  0  0  0  0  0  0  0  0  0  0
   -0.4083   -1.5884    6.3510 C   0  0  0  0  0  0  0  0  0  0  0  0
   -0.8876   -1.0190    5.0104 C   0  0  0  0  0  0  0  0  0  0  0  0
    0.8250   -2.4462    6.0692 C   0  0  0  0  0  0  0  0  0  0  0  0
    0.1867   -0.0576    4.4290 C   0  0  0  0  0  0  0  0  0  0  0  0
   -1.2917   -2.2042    4.1060 C   0  0  0  0  0  0  0  0  0  0  0  0
    1.9786   -1.5850    5.5155 C   0  0  0  0  0  0  0  0  0  0  0  0
    0.4215   -3.6092    5.1425 C   0  0  0  0  0  0  0  0  0  0  0  0
   -0.2623    0.5573    3.1887 N   0  0  0  0  0  0  0  0  0  0  0  0
    1.6385   -0.6128    4.3614 C   0  0  0  0  0  0  0  0  0  0  0  0
   -0.2047   -3.1641    3.8945 N   0  0  0  0  0  0  0  0  0  0  0  0
   -1.5673    1.2033    3.3261 C   0  0  0  0  0  0  0  0  0  0  0  0
    0.6387    1.6149    2.7317 C   0  0  0  0  0  0  0  0  0  0  0  0
    2.0925   -1.1582    2.9983 C   0  0  0  0  0  0  0  0  0  0  0  0
   -0.6494   -4.3001    3.0914 C   0  0  0  0  0  0  0  0  0  0  0  0
   -1.6463    2.0805    2.0852 C   0  0  0  0  0  0  0  0  0  0  0  0
   -0.1966    2.3480    1.6925 C   0  0  0  0  0  0  0  0  0  0  0  0
  1  2  1  0  0  0  0 
  3  2  1  0  0  0  0 
  4  2  1  0  0  0  0 
  3  5  1  0  0  0  0 
  3  6  1  0  0  0  0 
  4  7  1  0  0  0  0 
  4  8  1  0  0  0  0 
  9  5  1  0  0  0  0 
  5 10  1  0  0  0  0 
 11  6  1  0  0  0  0 
 10  7  1  0  0  0  0 
 11  8  1  0  0  0  0 
  9 12  1  0  0  0  0 
  9 13  1  0  0  0  0 
 10 14  1  0  0  0  0 
 11 15  1  0  0  0  0 
 12 16  1  0  0  0  0 
 13 17  1  0  0  0  0 
 16 17  1  0  0  0  0 
M  END
> <Name>
3-Azabicyclo(3.3.1)nonan-9-ol, 3,7-dimethyl-6-(1-pyrrolidinyl)-

> <Source>
Chemidplus3DMolFile

> <Tox>
2.678

> <CAS>
34769-67-0

$$$$

  CDK

 16 17  0  0  0  0  0  0  0  0999 V2000
   -2.8828    5.0387    1.5566 Cl  0  0  0  0  0  0  0  0  0  0  0  0
   -2.8170    3.6352    2.5642 C   0  0  0  0  0  0  0  0  0  0  0  0
   -1.5760    3.0279    2.7552 C   0  0  0  0  0  0  0  0  0  0  0  0
   -3.9536    3.1069    3.1764 C   0  0  0  0  0  0  0  0  0  0  0  0
   -1.4804    1.8966    3.5571 C   0  0  0  0  0  0  0  0  0  0  0  0
   -5.5183    3.8144    2.9789 Cl  0  0  0  0  0  0  0  0  0  0  0  0
   -3.8491    1.9714    3.9798 C   0  0  0  0  0  0  0  0  0  0  0  0
   -0.1447    1.2425    3.7629 C   0  0  0  0  0  0  0  0  0  0  0  0
   -2.6081    1.3641    4.1708 C   0  0  0  0  0  0  0  0  0  0  0  0
    0.1227    0.2226    2.7594 N   0  0  0  0  0  0  0  0  0  0  0  0
    0.6571    0.6891    1.4795 C   0  0  0  0  0  0  0  0  0  0  0  0
   -0.2646   -1.1069    2.9804 C   0  0  0  0  0  0  0  0  0  0  0  0
    1.4019   -0.4116    0.7464 C   0  0  0  0  0  0  0  0  0  0  0  0
   -0.7757   -1.5066    4.0305 O   0  0  0  0  0  0  0  0  0  0  0  0
   -0.0249   -1.9891    1.9357 N   0  0  0  0  0  0  0  0  0  0  0  0
    0.4864   -1.6111    0.6335 C   0  0  0  0  0  0  0  0  0  0  0  0
  1  2  1  0  0  0  0 
  3  2  1  0  0  0  0 
  2  4  2  0  0  0  0 
  5  3  2  0  0  0  0 
  6  4  1  0  0  0  0 
  7  4  1  0  0  0  0 
  8  5  1  0  0  0  0 
  5  9  1  0  0  0  0 
  9  7  2  0  0  0  0 
 10  8  1  0  0  0  0 
 10 11  1  0  0  0  0 
 10 12  1  0  0  0  0 
 11 13  1  0  0  0  0 
 14 12  2  0  0  0  0 
 15 12  1  0  0  0  0 
 13 16  1  0  0  0  0 
 15 16  1  0  0  0  0 
M  END
> <Name>
2(1H)-Pyrimidinone, tetrahydro-1-((3,4-dichlorophenyl)methyl)-

> <Source>
Chemidplus3DMolFile

> <Tox>
2.502

> <CAS>
34790-06-2

$$$$

  CDK

 25 27  0  0  0  0  0  0  0  0999 V2000
   -5.9899   -4.5017   -1.9215 F   0  0  0  0  0  0  0  0  0  0  0  0
   -4.8519   -4.6270   -1.1766 C   0  0  0  0  0  0  0  0  0  0  0  0
   -4.9395   -5.8608   -0.5974 F   0  0  0  0  0  0  0  0  0  0  0  0
   -4.9831   -3.7323   -0.1544 F   0  0  0  0  0  0  0  0  0  0  0  0
   -3.5992   -4.4231   -1.9602 C   0  0  0  0  0  0  0  0  0  0  0  0
   -2.3586   -4.5204   -1.3300 C   0  0  0  0  0  0  0  0  0  0  0  0
   -3.6684   -4.1346   -3.3232 C   0  0  0  0  0  0  0  0  0  0  0  0
   -1.1942   -4.3286   -2.0665 C   0  0  0  0  0  0  0  0  0  0  0  0
   -2.4971   -3.9433   -4.0560 C   0  0  0  0  0  0  0  0  0  0  0  0
    0.0820   -4.4284   -1.4195 N   0  0  0  0  0  0  0  0  0  0  0  0
   -1.2565   -4.0408   -3.4259 C   0  0  0  0  0  0  0  0  0  0  0  0
    0.6660   -3.2548   -0.8445 C   0  0  0  0  0  0  0  0  0  0  0  0
    0.7326   -5.6794   -1.4061 C   0  0  0  0  0  0  0  0  0  0  0  0
    1.9805   -3.3026   -0.3716 C   0  0  0  0  0  0  0  0  0  0  0  0
   -0.0399   -2.0478   -0.6725 C   0  0  0  0  0  0  0  0  0  0  0  0
    0.2455   -6.6996   -1.9087 O   0  0  0  0  0  0  0  0  0  0  0  0
    2.0248   -5.6897   -0.8333 N   0  0  0  0  0  0  0  0  0  0  0  0
    2.7406   -4.5626   -0.4152 C   0  0  0  0  0  0  0  0  0  0  0  0
    2.5944   -2.1689    0.1873 C   0  0  0  0  0  0  0  0  0  0  0  0
    0.5672   -0.9194   -0.1133 C   0  0  0  0  0  0  0  0  0  0  0  0
    2.7155   -6.9756   -0.7940 C   0  0  0  0  0  0  0  0  0  0  0  0
    3.9268   -4.5628   -0.0948 O   0  0  0  0  0  0  0  0  0  0  0  0
    1.8886   -0.9766    0.3068 C   0  0  0  0  0  0  0  0  0  0  0  0
    3.4320   -7.2639   -2.1006 C   0  0  0  0  0  0  0  0  0  0  0  0
    4.3673   -6.2264   -2.3653 O   0  0  0  0  0  0  0  0  0  0  0  0
  1  2  1  0  0  0  0 
  3  2  1  0  0  0  0 
  4  2  1  0  0  0  0 
  5  2  1  0  0  0  0 
  6  5  2  0  0  0  0 
  5  7  1  0  0  0  0 
  8  6  1  0  0  0  0 
  9  7  2  0  0  0  0 
 10  8  1  0  0  0  0 
  8 11  2  0  0  0  0 
 11  9  1  0  0  0  0 
 10 12  1  0  0  0  0 
 10 13  1  0  0  0  0 
 12 14  1  0  0  0  0 
 12 15  2  0  0  0  0 
 16 13  2  0  0  0  0 
 17 13  1  0  0  0  0 
 14 18  1  0  0  0  0 
 14 19  2  0  0  0  0 
 15 20  1  0  0  0  0 
 17 18  1  0  0  0  0 
 17 21  1  0  0  0  0 
 22 18  2  0  0  0  0 
 19 23  1  0  0  0  0 
 20 23  2  0  0  0  0 
 21 24  1  0  0  0  0 
 25 24  1  0  0  0  0 
M  END
> <Name>
2,4(1H,3H)-Quinazolinedione, 3-(2-hydroxyethyl)-1-(m-(trifluoromethyl)phenyl)-

> <Source>
Chemidplus3DMolFile

> <Tox>
2.636

> <CAS>
34929-08-3

$$$$

  CDK

 46 51  0  0  0  0  0  0  0  0999 V2000
   10.6857    6.8409    0.0000 O   0  0  0  0  0  0  0  0  0  0  0  0
   10.0366    6.0919    0.0000 C   0  0  0  0  0  0  0  0  0  0  0  0
   10.3362    7.7896    0.0000 C   0  0  0  0  0  0  0  0  0  0  0  0
    9.0379    6.2417    0.0000 O   0  0  0  0  0  0  0  0  0  0  0  0
   10.3861    5.1431    0.0000 C   0  0  0  0  0  0  0  0  0  0  0  0
   10.3861    4.1944    0.0000 C   0  0  0  0  0  0  0  0  0  0  0  0
    9.5372    5.6425    0.0000 O   0  0  0  0  0  0  0  0  0  0  0  0
   11.2350    5.6425    0.0000 C   0  0  0  0  0  0  0  0  0  0  0  0
    9.5372    3.6451    0.0000 C   0  0  0  0  0  0  0  0  0  0  0  0
   11.2350    3.6951    0.0000 C   0  0  0  0  0  0  0  0  0  0  0  0
    8.6384    5.1431    0.0000 C   0  0  0  0  0  0  0  0  0  0  0  0
   11.4347    6.6411    0.0000 O   0  0  0  0  0  0  0  0  0  0  0  0
   12.1338    5.1431    0.0000 C   0  0  0  0  0  0  0  0  0  0  0  0
    9.5372    2.6465    0.0000 O   0  0  0  0  0  0  0  0  0  0  0  0
    8.6384    4.1445    0.0000 C   0  0  0  0  0  0  0  0  0  0  0  0
   11.2350    2.6465    0.0000 O   0  0  0  0  0  0  0  0  0  0  0  0
   12.1338    4.1445    0.0000 C   0  0  0  0  0  0  0  0  0  0  0  0
    7.7896    5.6425    0.0000 C   0  0  0  0  0  0  0  0  0  0  0  0
   12.9826    5.6425    0.0000 C   0  0  0  0  0  0  0  0  0  0  0  0
    7.7896    3.6451    0.0000 C   0  0  0  0  0  0  0  0  0  0  0  0
    6.9407    5.1431    0.0000 C   0  0  0  0  0  0  0  0  0  0  0  0
    7.7896    2.6465    0.0000 O   0  0  0  0  0  0  0  0  0  0  0  0
    6.9407    4.1445    0.0000 C   0  0  0  0  0  0  0  0  0  0  0  0
    6.0419    3.6451    0.0000 C   0  0  0  0  0  0  0  0  0  0  0  0
    5.1931    4.1445    0.0000 C   0  0  0  0  0  0  0  0  0  0  0  0
    6.0419    2.6465    0.0000 C   0  0  0  0  0  0  0  0  0  0  0  0
    5.1931    5.1431    0.0000 O   0  0  0  0  0  0  0  0  0  0  0  0
    4.3442    3.6451    0.0000 C   0  0  0  0  0  0  0  0  0  0  0  0
    5.1931    2.1471    0.0000 C   0  0  0  0  0  0  0  0  0  0  0  0
    4.3442    2.6465    0.0000 C   0  0  0  0  0  0  0  0  0  0  0  0
    3.4454    4.1445    0.0000 C   0  0  0  0  0  0  0  0  0  0  0  0
    3.4454    2.1471    0.0000 O   0  0  0  0  0  0  0  0  0  0  0  0
    3.4454    5.1431    0.0000 O   0  0  0  0  0  0  0  0  0  0  0  0
    2.5965    3.6451    0.0000 C   0  0  0  0  0  0  0  0  0  0  0  0
    2.5965    2.6465    0.0000 C   0  0  0  0  0  0  0  0  0  0  0  0
    1.7477    4.1445    0.0000 C   0  0  0  0  0  0  0  0  0  0  0  0
    2.8961    1.6977    0.0000 C   0  0  0  0  0  0  0  0  0  0  0  0
    1.7477    2.1471    0.0000 C   0  0  0  0  0  0  0  0  0  0  0  0
    1.7477    5.1431    0.0000 O   0  0  0  0  0  0  0  0  0  0  0  0
    0.8489    3.6451    0.0000 C   0  0  0  0  0  0  0  0  0  0  0  0
    2.2969    0.9487    0.0000 O   0  0  0  0  0  0  0  0  0  0  0  0
    3.8948    1.5479    0.0000 O   0  0  0  0  0  0  0  0  0  0  0  0
    1.5479    1.1485    0.0000 O   0  0  0  0  0  0  0  0  0  0  0  0
    0.8489    2.6465    0.0000 C   0  0  0  0  0  0  0  0  0  0  0  0
    2.6465    0.0000    0.0000 C   0  0  0  0  0  0  0  0  0  0  0  0
    0.0000    2.1471    0.0000 C   0  0  0  0  0  0  0  0  0  0  0  0
  1  2  1  0  0  0  0 
  1  3  1  0  0  0  0 
  2  4  2  0  0  0  0 
  2  5  1  0  0  0  0 
  5  6  1  0  0  0  0 
  7  5  1  0  0  0  0 
  5  8  1  0  0  0  0 
  6  9  1  0  0  0  0 
 10  6  2  0  0  0  0 
 11  7  1  0  0  0  0 
  8 12  1  0  0  0  0 
  8 13  1  0  0  0  0 
  9 14  2  0  0  0  0 
  9 15  1  0  0  0  0 
 10 16  1  0  0  0  0 
 17 10  1  0  0  0  0 
 11 15  2  0  0  0  0 
 18 11  1  0  0  0  0 
 13 17  1  0  0  0  0 
 13 19  1  0  0  0  0 
 15 20  1  0  0  0  0 
 21 18  2  0  0  0  0 
 20 22  1  0  0  0  0 
 20 23  2  0  0  0  0 
 23 21  1  0  0  0  0 
 23 24  1  0  0  0  0 
 25 24  2  0  0  0  0 
 24 26  1  0  0  0  0 
 25 27  1  0  0  0  0 
 28 25  1  0  0  0  0 
 26 29  2  0  0  0  0 
 28 30  2  0  0  0  0 
 31 28  1  0  0  0  0 
 29 30  1  0  0  0  0 
 30 32  1  0  0  0  0 
 31 33  2  0  0  0  0 
 34 31  1  0  0  0  0 
 32 35  1  0  0  0  0 
 34 35  1  0  0  0  0 
 36 34  2  0  0  0  0 
 35 37  1  0  0  0  0 
 35 38  1  0  0  0  0 
 36 39  1  0  0  0  0 
 40 36  1  0  0  0  0 
 37 41  1  0  0  0  0 
 37 42  2  0  0  0  0 
 38 43  1  0  0  0  0 
 38 44  1  0  0  0  0 
 44 40  1  0  0  0  0 
 41 45  1  0  0  0  0 
 44 46  1  0  0  0  0 
M  END
> <Name>
(7,7'-Bi-4aH-xanthene)-4a,4'a-dicarboxylic acid, 2,2',3,3',4,4',9,9'-octahydro-1,1',4,4',8,8'-hexahydroxy-3,3'-dimethyl-9,9'-dioxo-, dimethyl ester, (3S-(3-alpha,4-beta,4a-beta,7(3'R,4'S,4'aS)))

> <Source>
NIST2DMolFile

> <Tox>
4.463

> <CAS>
35287-69-5

$$$$

  CDK

 19 20  0  0  0  0  0  0  0  0999 V2000
    5.7691   -2.0150    0.0000 C   0  0  0  0  0  0  0  0  0  0  0  0
    6.9100   -2.6775    0.0000 C   0  0  0  0  0  0  0  0  0  0  0  0
    4.6098   -2.6867    0.0000 C   0  0  0  0  0  0  0  0  0  0  0  0
    5.7691   -0.6717    0.0000 C   0  0  0  0  0  0  0  0  0  0  0  0
    8.0510   -2.0058    0.0000 C   0  0  0  0  0  0  0  0  0  0  0  0
    6.9100   -4.0209    0.0000 Cl  0  0  0  0  0  0  0  0  0  0  0  0
    4.6098   -4.0209    0.0000 C   0  0  0  0  0  0  0  0  0  0  0  0
    3.4320   -2.0334    0.0000 O   0  0  0  0  0  0  0  0  0  0  0  0
    6.9100   -0.0184    0.0000 C   0  0  0  0  0  0  0  0  0  0  0  0
    8.0510   -0.6717    0.0000 C   0  0  0  0  0  0  0  0  0  0  0  0
    3.4596   -4.6926    0.0000 N   0  0  0  0  0  0  0  0  0  0  0  0
    2.2911   -2.7051    0.0000 C   0  0  0  0  0  0  0  0  0  0  0  0
    9.2011   -0.0000    0.0000 Cl  0  0  0  0  0  0  0  0  0  0  0  0
    2.3187   -4.0301    0.0000 C   0  0  0  0  0  0  0  0  0  0  0  0
    3.1928   -5.9991    0.0000 C   0  0  0  0  0  0  0  0  0  0  0  0
    1.1409   -2.0518    0.0000 C   0  0  0  0  0  0  0  0  0  0  0  0
    1.3158   -4.9226    0.0000 N   0  0  0  0  0  0  0  0  0  0  0  0
    1.8862   -6.1371    0.0000 C   0  0  0  0  0  0  0  0  0  0  0  0
    0.0000   -2.7235    0.0000 C   0  0  0  0  0  0  0  0  0  0  0  0
  1  2  2  0  0  0  0 
  1  3  1  0  0  0  0 
  1  4  1  0  0  0  0 
  2  5  1  0  0  0  0 
  2  6  1  0  0  0  0 
  3  7  1  0  0  0  0 
  3  8  1  0  0  0  0 
  4  9  2  0  0  0  0 
  5 10  2  0  0  0  0 
 11  7  1  0  0  0  0 
  8 12  1  0  0  0  0 
 10  9  1  0  0  0  0 
 10 13  1  0  0  0  0 
 11 14  1  0  0  0  0 
 11 15  1  0  0  0  0 
 16 12  1  0  0  0  0 
 17 14  2  0  0  0  0 
 18 15  2  0  0  0  0 
 16 19  2  0  0  0  0 
 17 18  1  0  0  0  0 
M  END
> <Name>
1H-Imidazole, 1-(2-(2,4-dichlorophenyl)-2-(2-propenyloxy)ethyl)-, (+-)-

> <Source>
DSSTox2DMolFile

> <Tox>
3.117

> <CAS>
35554-44-0

$$$$

  CDK

 20 21  0  0  0  0  0  0  0  0999 V2000
    4.0326   -1.2437   -0.7087 S   0  0  0  0  0  0  0  0  0  0  0  0
    2.0719   -1.9726   -1.0970 P   0  0  0  0  0  0  0  0  0  0  0  0
    4.6075   -2.1663    0.7295 C   0  0  0  0  0  0  0  0  0  0  0  0
    1.1637   -1.3987   -2.7389 S   0  0  0  0  0  0  0  0  0  0  0  0
    1.1812   -1.6722    0.2411 O   0  0  0  0  0  0  0  0  0  0  0  0
    2.1334   -3.6015   -0.9659 O   0  0  0  0  0  0  0  0  0  0  0  0
    5.9323   -1.7617    1.0943 N   0  0  0  0  0  0  0  0  0  0  0  0
    0.8369   -0.3414    0.5894 C   0  0  0  0  0  0  0  0  0  0  0  0
    2.8268   -4.3730   -1.9328 C   0  0  0  0  0  0  0  0  0  0  0  0
    7.0746   -2.3708    0.5809 C   0  0  0  0  0  0  0  0  0  0  0  0
    6.3810   -0.7701    1.9582 C   0  0  0  0  0  0  0  0  0  0  0  0
    0.0172   -0.3612    1.8620 C   0  0  0  0  0  0  0  0  0  0  0  0
    2.7202   -5.8374   -1.5641 C   0  0  0  0  0  0  0  0  0  0  0  0
    7.1651   -3.3830   -0.2936 N   0  0  0  0  0  0  0  0  0  0  0  0
    8.1424   -1.7215    1.1560 C   0  0  0  0  0  0  0  0  0  0  0  0
    5.5186    0.3074    2.8820 S   0  0  0  0  0  0  0  0  0  0  0  0
    7.7746   -0.7118    2.0261 O   0  0  0  0  0  0  0  0  0  0  0  0
    8.4367   -3.7477   -0.5929 C   0  0  0  0  0  0  0  0  0  0  0  0
    9.4285   -2.0998    0.8451 C   0  0  0  0  0  0  0  0  0  0  0  0
    9.5815   -3.1481   -0.0598 C   0  0  0  0  0  0  0  0  0  0  0  0
  1  2  1  0  0  0  0 
  1  3  1  0  0  0  0 
  4  2  2  0  0  0  0 
  2  5  1  0  0  0  0 
  2  6  1  0  0  0  0 
  7  3  1  0  0  0  0 
  5  8  1  0  0  0  0 
  6  9  1  0  0  0  0 
  7 10  1  0  0  0  0 
  7 11  1  0  0  0  0 
  8 12  1  0  0  0  0 
  9 13  1  0  0  0  0 
 14 10  1  0  0  0  0 
 10 15  2  0  0  0  0 
 16 11  2  0  0  0  0 
 17 11  1  0  0  0  0 
 14 18  2  0  0  0  0 
 17 15  1  0  0  0  0 
 15 19  1  0  0  0  0 
 20 18  1  0  0  0  0 
 19 20  2  0  0  0  0 
M  END
> <Name>
Phosphorodithioic acid, O,O-diethyl ester, S-ester with 3-(mercaptomethyl)oxazolo(4,5-b)pyridin-2(3H)-thione

> <Source>
Chemidplus3DMolFile

> <Tox>
3.164

> <CAS>
35570-85-5

$$$$

  CDK

 14 14  0  0  0  0  0  0  0  0999 V2000
   -0.0434    1.8549    0.0183 C   0  0  0  0  0  0  0  0  0  0  0  0
   -1.1881    1.0266    0.0378 C   0  0  0  0  0  0  0  0  0  0  0  0
    1.2401    1.2929   -0.0076 C   0  0  0  0  0  0  0  0  0  0  0  0
   -0.1564    3.2725    0.1357 N   0  0  0  0  0  0  0  0  0  0  0  0
   -0.9977   -0.3617    0.0117 C   0  0  0  0  0  0  0  0  0  0  0  0
   -2.5507    1.6248    0.0650 C   0  0  0  0  0  0  0  0  0  0  0  0
    1.3996   -0.0932   -0.0125 C   0  0  0  0  0  0  0  0  0  0  0  0
    0.2788   -0.9246   -0.0010 C   0  0  0  0  0  0  0  0  0  0  0  0
   -2.1676   -1.3167   -0.0127 N   0  0  0  0  0  0  0  0  0  0  0  0
    2.7803   -0.6897   -0.0345 N   0  0  0  0  0  0  0  0  0  0  0  0
   -2.8586   -1.3665   -1.0079 O   0  0  0  0  0  0  0  0  0  0  0  0
   -2.3730   -2.0111    0.9584 O   0  0  0  0  0  0  0  0  0  0  0  0
    3.7432    0.0496   -0.0431 O   0  0  0  0  0  0  0  0  0  0  0  0
    2.9032   -1.8967   -0.0497 O   0  0  0  0  0  0  0  0  0  0  0  0
  1  2  1  0  0  0  0 
  1  3  2  0  0  0  0 
  1  4  1  0  0  0  0 
  2  5  2  0  0  0  0 
  2  6  1  0  0  0  0 
  7  3  1  0  0  0  0 
  5  8  1  0  0  0  0 
  5  9  1  0  0  0  0 
  8  7  2  0  0  0  0 
  7 10  1  0  0  0  0 
  9 11  2  0  0  0  0 
  9 12  1  0  0  0  0 
 10 13  2  0  0  0  0 
 10 14  1  0  0  0  0 
M  CHG  1   9   1
M  CHG  1  10   1
M  CHG  1  12  -1
M  CHG  1  14  -1
M  END
> <Name>
Benzenamine, 3,5-dinitro-2-methyl- (9CI)

> <Source>
DougDB3DMolFile

> <Tox>
2.151

> <CAS>
35572-78-2

$$$$

  CDK

 19 20  0  0  0  0  0  0  0  0999 V2000
    6.8570   -5.2325    0.0000 P   0  0  0  0  0  0  0  0  0  0  0  0
    8.0967   -4.8136    0.0000 O   0  0  0  0  0  0  0  0  0  0  0  0
    7.2588   -6.4893    0.0000 O   0  0  0  0  0  0  0  0  0  0  0  0
    5.5831   -5.6344    0.0000 O   0  0  0  0  0  0  0  0  0  0  0  0
    6.4380   -3.9586    0.0000 S   0  0  0  0  0  0  0  0  0  0  0  0
    8.5499   -6.7458    0.0000 C   0  0  0  0  0  0  0  0  0  0  0  0
    4.5827   -4.7281    0.0000 C   0  0  0  0  0  0  0  0  0  0  0  0
    5.1299   -3.6679    0.0000 C   0  0  0  0  0  0  0  0  0  0  0  0
    4.7110   -2.4025    0.0000 N   0  0  0  0  0  0  0  0  0  0  0  0
    3.4712   -2.0007    0.0000 C   0  0  0  0  0  0  0  0  0  0  0  0
    5.4976   -1.3252    0.0000 C   0  0  0  0  0  0  0  0  0  0  0  0
    2.3085   -2.6505    0.0000 N   0  0  0  0  0  0  0  0  0  0  0  0
    3.4712   -0.6669    0.0000 C   0  0  0  0  0  0  0  0  0  0  0  0
    4.7110   -0.2650    0.0000 O   0  0  0  0  0  0  0  0  0  0  0  0
    6.8399   -1.3252    0.0000 O   0  0  0  0  0  0  0  0  0  0  0  0
    1.1286   -2.0007    0.0000 C   0  0  0  0  0  0  0  0  0  0  0  0
    2.3085   -0.0000    0.0000 C   0  0  0  0  0  0  0  0  0  0  0  0
    1.1286   -0.6669    0.0000 C   0  0  0  0  0  0  0  0  0  0  0  0
    0.0000   -0.0000    0.0000 Cl  0  0  0  0  0  0  0  0  0  0  0  0
  1  2  2  0  0  0  0 
  1  3  1  0  0  0  0 
  1  4  1  0  0  0  0 
  1  5  1  0  0  0  0 
  3  6  1  0  0  0  0 
  4  7  1  0  0  0  0 
  5  8  1  0  0  0  0 
  8  9  1  0  0  0  0 
 10  9  1  0  0  0  0 
 11  9  1  0  0  0  0 
 12 10  2  0  0  0  0 
 10 13  1  0  0  0  0 
 14 11  1  0  0  0  0 
 11 15  2  0  0  0  0 
 12 16  1  0  0  0  0 
 13 17  2  0  0  0  0 
 13 14  1  0  0  0  0 
 16 18  2  0  0  0  0 
 18 17  1  0  0  0  0 
 18 19  1  0  0  0  0 
M  END
> <Name>
S-((6-Chloro-2,3-dihydro-2-oxo-1,3-oxazolo-(4,5-b)pyridin-3-yl)methyl) O,O-dimethyl phosphorothioate

> <Source>
DSSTox2DMolFile

> <Tox>
2.440

> <CAS>
35575-96-3

$$$$

  CDK

 14 15  0  0  0  0  0  0  0  0999 V2000
   -0.4178    3.3569   -2.9880 O   0  0  0  0  0  0  0  0  0  0  0  0
    0.2021    4.6163   -3.2852 C   0  0  0  0  0  0  0  0  0  0  0  0
    0.3743    2.5437   -2.2213 C   0  0  0  0  0  0  0  0  0  0  0  0
    1.5575    4.4445   -3.7721 N   0  0  0  0  0  0  0  0  0  0  0  0
   -0.6589    5.3286   -4.3164 C   0  0  0  0  0  0  0  0  0  0  0  0
    1.7699    2.6001   -2.2597 C   0  0  0  0  0  0  0  0  0  0  0  0
   -0.2641    1.5985   -1.4190 C   0  0  0  0  0  0  0  0  0  0  0  0
    2.4236    3.5485   -3.1826 C   0  0  0  0  0  0  0  0  0  0  0  0
   -0.7527    4.5376   -5.6097 C   0  0  0  0  0  0  0  0  0  0  0  0
    2.5315    1.7294   -1.4769 C   0  0  0  0  0  0  0  0  0  0  0  0
    0.4948    0.7316   -0.6323 C   0  0  0  0  0  0  0  0  0  0  0  0
    3.6276    3.4999   -3.4036 O   0  0  0  0  0  0  0  0  0  0  0  0
    1.8888    0.7996   -0.6584 C   0  0  0  0  0  0  0  0  0  0  0  0
    2.6502   -0.0814    0.1384 N   0  0  0  0  0  0  0  0  0  0  0  0
  1  2  1  0  0  0  0 
  1  3  1  0  0  0  0 
  4  2  1  0  0  0  0 
  2  5  1  0  0  0  0 
  6  3  2  0  0  0  0 
  3  7  1  0  0  0  0 
  4  8  1  0  0  0  0 
  5  9  1  0  0  0  0 
  6  8  1  0  0  0  0 
  6 10  1  0  0  0  0 
  7 11  2  0  0  0  0 
 12  8  2  0  0  0  0 
 10 13  2  0  0  0  0 
 13 11  1  0  0  0  0 
 14 13  1  0  0  0  0 
M  END
> <Name>
2H-1,3-Benzoxazin-4(3H)-one, 6-amino-2-ethyl-

> <Source>
Chemidplus3DMolFile

> <Tox>
2.007

> <CAS>
35793-87-4

$$$$

  CDK

 20 22  0  0  0  0  0  0  0  0999 V2000
    0.0000    0.0000    0.0000 O   0  0  0  0  0  0  0  0  0  0  0  0
    0.9400    0.5200    0.5400 C   0  0  0  0  0  0  0  0  0  0  0  0
    1.6000   -0.1200    1.7200 C   0  0  0  0  0  0  0  0  0  0  0  0
    1.4800    1.6800    0.1600 O   0  0  0  0  0  0  0  0  0  0  0  0
    0.9800    0.3000    3.0600 C   0  0  0  0  0  0  0  0  0  0  0  0
    1.6400   -0.4200    4.1000 O   0  0  0  0  0  0  0  0  0  0  0  0
   -0.5000    0.0200    3.0600 C   0  0  0  0  0  0  0  0  0  0  0  0
    1.2600    1.7800    3.3200 C   0  0  0  0  0  0  0  0  0  0  0  0
    1.2600   -1.8000    4.2200 C   0  0  0  0  0  0  0  0  0  0  0  0
   -1.1000   -1.0200    3.7600 C   0  0  0  0  0  0  0  0  0  0  0  0
   -1.5400    0.7000    2.4200 N   0  0  0  0  0  0  0  0  0  0  0  0
    0.9200    2.2000    4.7600 C   0  0  0  0  0  0  0  0  0  0  0  0
   -0.2400   -1.9600    4.5800 C   0  0  0  0  0  0  0  0  0  0  0  0
   -2.4400   -1.0200    3.5400 C   0  0  0  0  0  0  0  0  0  0  0  0
   -2.7400    0.0600    2.7200 C   0  0  0  0  0  0  0  0  0  0  0  0
    1.1400    3.7000    5.0000 C   0  0  0  0  0  0  0  0  0  0  0  0
   -3.4600   -1.8600    4.0200 C   0  0  0  0  0  0  0  0  0  0  0  0
   -4.0400    0.3600    2.2800 C   0  0  0  0  0  0  0  0  0  0  0  0
   -4.7800   -1.5800    3.6000 C   0  0  0  0  0  0  0  0  0  0  0  0
   -5.0800   -0.4800    2.7600 C   0  0  0  0  0  0  0  0  0  0  0  0
  1  2  2  0  0  0  0 
  2  3  1  0  0  0  0 
  2  4  1  0  0  0  0 
  3  5  1  0  0  0  0 
  5  6  1  0  0  0  0 
  5  7  1  0  0  0  0 
  5  8  1  0  0  0  0 
  6  9  1  0  0  0  0 
 10  7  2  0  0  0  0 
  7 11  1  0  0  0  0 
 12  8  1  0  0  0  0 
  9 13  1  0  0  0  0 
 13 10  1  0  0  0  0 
 10 14  1  0  0  0  0 
 11 15  1  0  0  0  0 
 16 12  1  0  0  0  0 
 17 14  2  0  0  0  0 
 15 14  1  0  0  0  0 
 15 18  2  0  0  0  0 
 19 17  1  0  0  0  0 
 18 20  1  0  0  0  0 
 20 19  2  0  0  0  0 
M  END
> <Name>
Pyrano(3,4-b)indole-1-acetic acid, 1,3,4,9-tetrahydro-1-propyl-

> <Source>
NIH3DMolFile

> <Tox>
2.284

> <CAS>
36505-82-5

$$$$

  CDK

 15 15  0  0  0  0  0  0  0  0999 V2000
   -0.9086    0.0038   -0.3370 C   0  0  0  0  0  0  0  0  0  0  0  0
   -0.2215   -1.2137   -0.2273 C   0  0  0  0  0  0  0  0  0  0  0  0
   -0.2150    1.2176   -0.2268 C   0  0  0  0  0  0  0  0  0  0  0  0
   -2.2533    0.0076   -0.6655 O   0  0  0  0  0  0  0  0  0  0  0  0
    1.1591   -1.2110   -0.0152 C   0  0  0  0  0  0  0  0  0  0  0  0
   -1.0335   -2.6729   -0.3509 Cl  0  0  0  0  0  0  0  0  0  0  0  0
    1.1654    1.2075   -0.0144 C   0  0  0  0  0  0  0  0  0  0  0  0
   -1.0192    2.6812   -0.3501 Cl  0  0  0  0  0  0  0  0  0  0  0  0
   -3.1045    0.0060    0.4865 C   0  0  0  0  0  0  0  0  0  0  0  0
    1.8512   -0.0036    0.0909 C   0  0  0  0  0  0  0  0  0  0  0  0
    1.9870   -2.6603    0.1117 Cl  0  0  0  0  0  0  0  0  0  0  0  0
    2.0008    2.6525    0.1135 Cl  0  0  0  0  0  0  0  0  0  0  0  0
   -4.5383    0.0023   -0.0330 C   0  0  0  0  0  0  0  0  0  0  0  0
    3.5058   -0.0080    0.3444 Cl  0  0  0  0  0  0  0  0  0  0  0  0
   -5.5152    0.0015    1.1208 C   0  0  0  0  0  0  0  0  0  0  0  0
  1  2  1  0  0  0  0 
  1  3  2  0  0  0  0 
  1  4  1  0  0  0  0 
  2  5  2  0  0  0  0 
  2  6  1  0  0  0  0 
  7  3  1  0  0  0  0 
  3  8  1  0  0  0  0 
  4  9  1  0  0  0  0 
  5 10  1  0  0  0  0 
  5 11  1  0  0  0  0 
 10  7  2  0  0  0  0 
  7 12  1  0  0  0  0 
  9 13  1  0  0  0  0 
 10 14  1  0  0  0  0 
 13 15  1  0  0  0  0 
M  END
> <Name>
Benzene, pentachloropropoxy-

> <Source>
DougDB3DMolFile

> <Tox>
2.856

> <CAS>
36518-74-8

$$$$

  CDK

 14 13  0  0  0  0  0  0  0  0999 V2000
    0.0000    0.0000    0.0000 C   0  0  0  0  0  0  0  0  0  0  0  0
   -0.1400    1.5000   -0.3200 C   0  0  0  0  0  0  0  0  0  0  0  0
    1.1600    2.2800   -0.1200 C   0  0  0  0  0  0  0  0  0  0  0  0
   -0.1400    1.7800   -1.8200 C   0  0  0  0  0  0  0  0  0  0  0  0
   -1.3400    2.1400    0.3800 C   0  0  0  0  0  0  0  0  0  0  0  0
    0.8800    3.6600   -0.2400 O   0  0  0  0  0  0  0  0  0  0  0  0
   -1.4600    1.4200   -2.5000 C   0  0  0  0  0  0  0  0  0  0  0  0
    2.0000    4.4000   -0.1600 C   0  0  0  0  0  0  0  0  0  0  0  0
   -2.2600    2.6600   -2.9000 C   0  0  0  0  0  0  0  0  0  0  0  0
   -1.2800    0.4200   -3.6600 C   0  0  0  0  0  0  0  0  0  0  0  0
    1.8000    5.8800   -0.3400 C   0  0  0  0  0  0  0  0  0  0  0  0
    3.0800    3.9400    0.0600 O   0  0  0  0  0  0  0  0  0  0  0  0
    2.5800    6.4200   -1.5400 C   0  0  0  0  0  0  0  0  0  0  0  0
    0.3200    6.2800   -0.3800 C   0  0  0  0  0  0  0  0  0  0  0  0
  1  2  1  0  0  0  0 
  2  3  1  0  0  0  0 
  2  4  1  0  0  0  0 
  2  5  1  0  0  0  0 
  3  6  1  0  0  0  0 
  4  7  1  0  0  0  0 
  6  8  1  0  0  0  0 
  7  9  1  0  0  0  0 
  7 10  1  0  0  0  0 
  8 11  1  0  0  0  0 
  8 12  2  0  0  0  0 
 11 13  1  0  0  0  0 
 11 14  1  0  0  0  0 
M  END
> <Name>
Propanoic acid, 2-methyl-, 2,2,4-trimethylpentyl ester

> <Source>
NIH3DMolFile

> <Tox>
1.521

> <CAS>
36679-74-0

$$$$

  CDK

 19 19  0  0  0  0  0  0  0  0999 V2000
    5.7763   -1.9807    0.0000 C   0  0  0  0  0  0  0  0  0  0  0  0
    5.7763   -0.6541    0.0000 O   0  0  0  0  0  0  0  0  0  0  0  0
    4.6524   -2.6532    0.0000 S   0  0  0  0  0  0  0  0  0  0  0  0
    6.9095   -2.6532    0.0000 N   0  0  0  0  0  0  0  0  0  0  0  0
    3.4732   -1.9807    0.0000 C   0  0  0  0  0  0  0  0  0  0  0  0
    6.9095   -3.9799    0.0000 C   0  0  0  0  0  0  0  0  0  0  0  0
    8.0795   -1.9807    0.0000 C   0  0  0  0  0  0  0  0  0  0  0  0
    2.3032   -2.6532    0.0000 C   0  0  0  0  0  0  0  0  0  0  0  0
    8.0795   -4.6708    0.0000 C   0  0  0  0  0  0  0  0  0  0  0  0
    5.7763   -4.6708    0.0000 C   0  0  0  0  0  0  0  0  0  0  0  0
    8.0795   -0.6541    0.0000 C   0  0  0  0  0  0  0  0  0  0  0  0
    9.2126   -2.6532    0.0000 C   0  0  0  0  0  0  0  0  0  0  0  0
    1.1700   -2.0176    0.0000 C   0  0  0  0  0  0  0  0  0  0  0  0
    2.3032   -3.9799    0.0000 C   0  0  0  0  0  0  0  0  0  0  0  0
    9.2126   -3.9799    0.0000 C   0  0  0  0  0  0  0  0  0  0  0  0
    6.9555   -0.0000    0.0000 C   0  0  0  0  0  0  0  0  0  0  0  0
    0.0000   -2.6440    0.0000 C   0  0  0  0  0  0  0  0  0  0  0  0
    1.1516   -4.6708    0.0000 C   0  0  0  0  0  0  0  0  0  0  0  0
    0.0000   -3.9799    0.0000 C   0  0  0  0  0  0  0  0  0  0  0  0
  1  2  2  0  0  0  0 
  1  3  1  0  0  0  0 
  1  4  1  0  0  0  0 
  3  5  1  0  0  0  0 
  4  6  1  0  0  0  0 
  4  7  1  0  0  0  0 
  5  8  1  0  0  0  0 
  6  9  1  0  0  0  0 
  6 10  1  0  0  0  0 
  7 11  1  0  0  0  0 
  7 12  1  0  0  0  0 
  8 13  2  0  0  0  0 
  8 14  1  0  0  0  0 
  9 15  1  0  0  0  0 
 11 16  1  0  0  0  0 
 13 17  1  0  0  0  0 
 14 18  2  0  0  0  0 
 17 19  2  0  0  0  0 
 18 19  1  0  0  0  0 
M  END
> <Name>
Carbamic acid, di-sec-butylthio-, S-benzyl ester

> <Source>
DSSTox2DMolFile

> <Tox>
1.446

> <CAS>
36756-79-3

$$$$

  CDK

 18 19  0  0  0  0  0  0  0  0999 V2000
    6.0389    0.0000    0.0000 C   0  0  0  0  0  0  0  0  0  0  0  0
    6.0389    1.3744    0.0000 C   0  0  0  0  0  0  0  0  0  0  0  0
    7.2467    2.0824    0.0000 C   0  0  0  0  0  0  0  0  0  0  0  0
    4.8311    2.0824    0.0000 C   0  0  0  0  0  0  0  0  0  0  0  0
    4.8311    3.4984    0.0000 C   0  0  0  0  0  0  0  0  0  0  0  0
    6.0389    4.1647    0.0000 C   0  0  0  0  0  0  0  0  0  0  0  0
    3.6233    4.1647    0.0000 N   0  0  0  0  0  0  0  0  0  0  0  0
    3.6233    5.5808    0.0000 N   0  0  0  0  0  0  0  0  0  0  0  0
    2.4156    6.2888    0.0000 C   0  0  0  0  0  0  0  0  0  0  0  0
    1.2078    5.5808    0.0000 N   0  0  0  0  0  0  0  0  0  0  0  0
    2.4156    7.6631    0.0000 C   0  0  0  0  0  0  0  0  0  0  0  0
    0.0000    6.2888    0.0000 N   0  0  0  0  0  0  0  0  0  0  0  0
    3.6233    8.3711    0.0000 C   0  0  0  0  0  0  0  0  0  0  0  0
    1.2078    8.3711    0.0000 C   0  0  0  0  0  0  0  0  0  0  0  0
    0.0000    7.6631    0.0000 C   0  0  0  0  0  0  0  0  0  0  0  0
    3.6233    9.7872    0.0000 C   0  0  0  0  0  0  0  0  0  0  0  0
    1.2078    9.7872    0.0000 C   0  0  0  0  0  0  0  0  0  0  0  0
    2.4156   10.4535    0.0000 C   0  0  0  0  0  0  0  0  0  0  0  0
  1  2  1  0  0  0  0 
  2  3  1  0  0  0  0 
  2  4  2  0  0  0  0 
  4  5  1  0  0  0  0 
  5  6  1  0  0  0  0 
  5  7  2  0  0  0  0 
  7  8  1  0  0  0  0 
  8  9  1  0  0  0  0 
  9 10  2  0  0  0  0 
  9 11  1  0  0  0  0 
 10 12  1  0  0  0  0 
 13 11  1  0  0  0  0 
 14 11  2  0  0  0  0 
 12 15  2  0  0  0  0 
 16 13  2  0  0  0  0 
 15 14  1  0  0  0  0 
 14 17  1  0  0  0  0 
 18 16  1  0  0  0  0 
 17 18  2  0  0  0  0 
M  END
> <Name>
1(2H)-Phthalazinone, (1,3-dimethyl-2-butenylidene)hydrazone

> <Source>
IndexNet2DMolFile

> <Tox>
2.588

> <CAS>
36798-79-5

$$$$

  CDK

 16 16  0  0  0  0  0  0  0  0999 V2000
   -2.0595   -3.6874   -1.8624 S   0  0  0  0  0  0  0  0  0  0  0  0
   -0.5956   -3.9072   -3.1261 P   0  0  0  0  0  0  0  0  0  0  0  0
   -0.9223   -3.5133   -4.6693 O   0  0  0  0  0  0  0  0  0  0  0  0
   -0.0506   -5.4255   -3.3275 O   0  0  0  0  0  0  0  0  0  0  0  0
    0.9124   -2.9887   -2.7967 C   0  0  0  0  0  0  0  0  0  0  0  0
    0.0031   -3.8084   -5.7013 C   0  0  0  0  0  0  0  0  0  0  0  0
   -0.9496   -6.4836   -3.6123 C   0  0  0  0  0  0  0  0  0  0  0  0
    1.4316   -3.1941   -1.3881 C   0  0  0  0  0  0  0  0  0  0  0  0
    0.7550   -1.5179   -3.1355 C   0  0  0  0  0  0  0  0  0  0  0  0
    2.2017   -4.3089   -1.1097 C   0  0  0  0  0  0  0  0  0  0  0  0
    1.1231   -2.2622   -0.4137 C   0  0  0  0  0  0  0  0  0  0  0  0
    1.9299   -0.8439   -3.0296 O   0  0  0  0  0  0  0  0  0  0  0  0
   -0.2850   -0.9777   -3.4885 O   0  0  0  0  0  0  0  0  0  0  0  0
    2.6794   -4.4983    0.1871 C   0  0  0  0  0  0  0  0  0  0  0  0
    1.6009   -2.4514    0.8830 C   0  0  0  0  0  0  0  0  0  0  0  0
    2.3790   -3.5695    1.1834 C   0  0  0  0  0  0  0  0  0  0  0  0
  1  2  2  0  0  0  0 
  2  3  1  0  0  0  0 
  2  4  1  0  0  0  0 
  2  5  1  0  0  0  0 
  3  6  1  0  0  0  0 
  4  7  1  0  0  0  0 
  5  8  1  0  0  0  0 
  5  9  1  0  0  0  0 
  8 10  2  0  0  0  0 
  8 11  1  0  0  0  0 
 12  9  1  0  0  0  0 
 13  9  2  0  0  0  0 
 10 14  1  0  0  0  0 
 11 15  2  0  0  0  0 
 14 16  2  0  0  0  0 
 15 16  1  0  0  0  0 
M  END
> <Name>
Benzeneacetic acid, alpha-(dimethoxyphosphinothioyl)-

> <Source>
Chemidplus3DMolFile

> <Tox>
1.762

> <CAS>
37565-85-8

$$$$

  CDK

 16 16  0  0  0  0  0  0  0  0999 V2000
   -1.9520   -6.1279    1.4313 F   0  0  0  0  0  0  0  0  0  0  0  0
   -1.9254   -4.7885    1.1644 C   0  0  0  0  0  0  0  0  0  0  0  0
   -3.2369   -4.4127    1.0981 F   0  0  0  0  0  0  0  0  0  0  0  0
   -1.4481   -4.6786   -0.1096 F   0  0  0  0  0  0  0  0  0  0  0  0
   -1.1271   -3.9991    2.1462 C   0  0  0  0  0  0  0  0  0  0  0  0
   -1.0116   -2.6167    2.0007 C   0  0  0  0  0  0  0  0  0  0  0  0
   -0.4968   -4.6433    3.2107 C   0  0  0  0  0  0  0  0  0  0  0  0
   -0.2672   -1.8969    2.9215 C   0  0  0  0  0  0  0  0  0  0  0  0
    0.2492   -3.9052    4.1296 C   0  0  0  0  0  0  0  0  0  0  0  0
   -0.1417   -0.4005    2.7639 C   0  0  0  0  0  0  0  0  0  0  0  0
    0.3648   -2.5228    3.9840 C   0  0  0  0  0  0  0  0  0  0  0  0
    1.0633    0.0304    1.9078 C   0  0  0  0  0  0  0  0  0  0  0  0
    1.1227    1.4938    1.8469 N   0  0  0  0  0  0  0  0  0  0  0  0
    0.9889   -0.5079    0.4788 C   0  0  0  0  0  0  0  0  0  0  0  0
    2.2885    1.9275    1.0953 C   0  0  0  0  0  0  0  0  0  0  0  0
    2.3646    3.4433    1.0265 C   0  0  0  0  0  0  0  0  0  0  0  0
  1  2  1  0  0  0  0 
  3  2  1  0  0  0  0 
  4  2  1  0  0  0  0 
  5  2  1  0  0  0  0 
  6  5  1  0  0  0  0 
  5  7  2  0  0  0  0 
  8  6  2  0  0  0  0 
  9  7  1  0  0  0  0 
 10  8  1  0  0  0  0 
  8 11  1  0  0  0  0 
 11  9  2  0  0  0  0 
 12 10  1  0  0  0  0 
 13 12  1  0  0  0  0 
 12 14  1  0  0  0  0 
 13 15  1  0  0  0  0 
 15 16  1  0  0  0  0 
M  END
> <Name>
(-)-(R)-N-Ethyl-alpha-methyl-m-(trifluoromethyl)phenethylamine

> <Source>
Chemidplus3DMolFile

> <Tox>
3.074

> <CAS>
37577-24-5

$$$$

  CDK

 14 14  0  0  0  0  0  0  0  0999 V2000
    0.0000    0.5103    0.0000 C   0  0  0  0  0  0  0  0  0  0  0  0
    0.0000    1.5310    0.0000 C   0  0  0  0  0  0  0  0  0  0  0  0
    0.9186    0.0000    0.0000 C   0  0  0  0  0  0  0  0  0  0  0  0
    0.9186    1.9393    0.0000 C   0  0  0  0  0  0  0  0  0  0  0  0
    1.8372    0.5103    0.0000 C   0  0  0  0  0  0  0  0  0  0  0  0
    1.8372    2.4496    0.0000 C   0  0  0  0  0  0  0  0  0  0  0  0
    0.0000    2.4496    0.0000 C   0  0  0  0  0  0  0  0  0  0  0  0
    1.8372    1.5310    0.0000 C   0  0  0  0  0  0  0  0  0  0  0  0
    2.6028    0.0000    0.0000 C   0  0  0  0  0  0  0  0  0  0  0  0
    2.6028    1.9393    0.0000 C   0  0  0  0  0  0  0  0  0  0  0  0
    3.4703    0.5103    0.0000 C   0  0  0  0  0  0  0  0  0  0  0  0
    3.4703    1.5310    0.0000 C   0  0  0  0  0  0  0  0  0  0  0  0
    4.3379    2.0414    0.0000 C   0  0  0  0  0  0  0  0  0  0  0  0
    4.3379    3.0110    0.0000 O   0  0  0  0  0  0  0  0  0  0  0  0
  1  2  1  0  0  0  0 
  1  3  1  0  0  0  0 
  2  4  2  0  0  0  0 
  3  5  1  0  0  0  0 
  4  6  1  0  0  0  0 
  4  7  1  0  0  0  0 
  5  8  2  0  0  0  0 
  9  5  1  0  0  0  0 
  8 10  1  0  0  0  0 
 11  9  1  0  0  0  0 
 10 12  1  0  0  0  0 
 12 11  1  0  0  0  0 
 12 13  1  0  0  0  0 
 13 14  2  0  0  0  0 
M  END
> <Name>
3-Cyclohexene-1-carboxaldehyde, 4-(5-methyl-3-penten-1-yl)-

> <Source>
NIST2DMolFile

> <Tox>
1.440

> <CAS>
37677-14-8

$$$$

  CDK

 15 15  0  0  0  0  0  0  0  0999 V2000
    1.9789    1.2709   -1.9311 S   0  0  0  0  0  0  0  0  0  0  0  0
    3.3051    1.1803   -0.2698 P   0  0  0  0  0  0  0  0  0  0  0  0
    2.2039   -0.2887   -2.8097 C   0  0  0  0  0  0  0  0  0  0  0  0
    3.5525    2.7900    0.8245 S   0  0  0  0  0  0  0  0  0  0  0  0
    2.8589   -0.1143    0.6242 O   0  0  0  0  0  0  0  0  0  0  0  0
    4.7261    0.5921   -0.8254 O   0  0  0  0  0  0  0  0  0  0  0  0
    1.3187   -0.3635   -4.0203 C   0  0  0  0  0  0  0  0  0  0  0  0
    1.6364   -0.1024    1.3425 C   0  0  0  0  0  0  0  0  0  0  0  0
    5.5381    1.3734   -1.6864 C   0  0  0  0  0  0  0  0  0  0  0  0
    0.1008   -0.9007   -3.8175 O   0  0  0  0  0  0  0  0  0  0  0  0
    1.5752    0.0172   -5.2276 N   0  0  0  0  0  0  0  0  0  0  0  0
   -0.4035   -0.8138   -5.0787 C   0  0  0  0  0  0  0  0  0  0  0  0
    0.4292   -0.2798   -5.9414 N   0  0  0  0  0  0  0  0  0  0  0  0
   -1.7689   -1.3138   -5.2825 C   0  0  0  0  0  0  0  0  0  0  0  0
   -2.8439   -0.2385   -5.0692 C   0  0  0  0  0  0  0  0  0  0  0  0
  1  2  1  0  0  0  0 
  1  3  1  0  0  0  0 
  4  2  2  0  0  0  0 
  2  5  1  0  0  0  0 
  2  6  1  0  0  0  0 
  3  7  1  0  0  0  0 
  5  8  1  0  0  0  0 
  6  9  1  0  0  0  0 
 10  7  1  0  0  0  0 
 11  7  2  0  0  0  0 
 10 12  1  0  0  0  0 
 11 13  1  0  0  0  0 
 13 12  2  0  0  0  0 
 14 12  1  0  0  0  0 
 14 15  1  0  0  0  0 
M  END
> <Name>
Phosphorodithioic acid, O,O-dimethyl S-((5-ethyl-1,3,4-oxadiazol-2-yl)methyl ester

> <Source>
Chemidplus3DMolFile

> <Tox>
3.229

> <CAS>
37934-13-7

$$$$

  CDK

 18 18  0  0  0  0  0  0  0  0999 V2000
    0.8644   -4.7126   -0.0720 S   0  0  0  0  0  0  0  0  0  0  0  0
    0.6887   -2.6964   -0.6379 P   0  0  0  0  0  0  0  0  0  0  0  0
    0.5102   -5.6577   -1.5669 C   0  0  0  0  0  0  0  0  0  0  0  0
    1.8245   -2.3528   -1.7496 O   0  0  0  0  0  0  0  0  0  0  0  0
    1.0852   -1.7162    0.5971 O   0  0  0  0  0  0  0  0  0  0  0  0
   -0.7036   -2.4176   -1.1424 O   0  0  0  0  0  0  0  0  0  0  0  0
    1.4815   -5.3261   -2.6629 C   0  0  0  0  0  0  0  0  0  0  0  0
    1.9232   -1.0255   -2.2371 C   0  0  0  0  0  0  0  0  0  0  0  0
    2.3587   -1.8251    1.2090 C   0  0  0  0  0  0  0  0  0  0  0  0
    2.5959   -6.0808   -2.6999 O   0  0  0  0  0  0  0  0  0  0  0  0
    1.3874   -4.4113   -3.5698 N   0  0  0  0  0  0  0  0  0  0  0  0
    3.0436   -0.9552   -3.2528 C   0  0  0  0  0  0  0  0  0  0  0  0
    2.4608   -0.8024    2.3205 C   0  0  0  0  0  0  0  0  0  0  0  0
    3.2196   -5.5204   -3.7721 C   0  0  0  0  0  0  0  0  0  0  0  0
    2.5448   -4.5345   -4.3157 N   0  0  0  0  0  0  0  0  0  0  0  0
    4.5188   -6.0876   -4.1543 C   0  0  0  0  0  0  0  0  0  0  0  0
    5.7073   -5.3956   -3.4498 C   0  0  0  0  0  0  0  0  0  0  0  0
    5.8173   -3.9186   -3.7933 C   0  0  0  0  0  0  0  0  0  0  0  0
  1  2  1  0  0  0  0 
  1  3  1  0  0  0  0 
  2  4  1  0  0  0  0 
  2  5  1  0  0  0  0 
  2  6  2  0  0  0  0 
  3  7  1  0  0  0  0 
  4  8  1  0  0  0  0 
  5  9  1  0  0  0  0 
 10  7  1  0  0  0  0 
 11  7  2  0  0  0  0 
  8 12  1  0  0  0  0 
  9 13  1  0  0  0  0 
 10 14  1  0  0  0  0 
 15 11  1  0  0  0  0 
 15 14  2  0  0  0  0 
 16 14  1  0  0  0  0 
 16 17  1  0  0  0  0 
 17 18  1  0  0  0  0 
M  END
> <Name>
Phosphorothioic acid, O,O-diethyl S-((5-propyl-1,3,4-oxadiazol-2-yl)methyl) ester

> <Source>
Chemidplus3DMolFile

> <Tox>
4.057

> <CAS>
37934-17-1

$$$$

  CDK

 17 19  0  0  0  0  0  0  0  0999 V2000
    6.6924   -0.3884   -7.8412 O   0  0  0  0  0  0  0  0  0  0  0  0
    7.3629   -1.4945   -7.2617 C   0  0  0  0  0  0  0  0  0  0  0  0
    6.3270   -2.5145   -6.8151 C   0  0  0  0  0  0  0  0  0  0  0  0
    5.3446   -2.0219   -5.7884 C   0  0  0  0  0  0  0  0  0  0  0  0
    5.3718   -2.9155   -7.9591 C   0  0  0  0  0  0  0  0  0  0  0  0
    4.0607   -2.5130   -6.0636 C   0  0  0  0  0  0  0  0  0  0  0  0
    5.5764   -1.2400   -4.6675 C   0  0  0  0  0  0  0  0  0  0  0  0
    4.0638   -3.3658   -7.2933 C   0  0  0  0  0  0  0  0  0  0  0  0
    2.9903   -2.2332   -5.2301 C   0  0  0  0  0  0  0  0  0  0  0  0
    4.5000   -0.9419   -3.8284 C   0  0  0  0  0  0  0  0  0  0  0  0
    3.2163   -1.4349   -4.1076 C   0  0  0  0  0  0  0  0  0  0  0  0
    2.0653   -1.1025   -3.1756 C   0  0  0  0  0  0  0  0  0  0  0  0
    1.4746   -2.3648   -2.5233 C   0  0  0  0  0  0  0  0  0  0  0  0
    0.9711   -0.2853   -3.8846 C   0  0  0  0  0  0  0  0  0  0  0  0
    0.3237   -2.0192   -1.5797 C   0  0  0  0  0  0  0  0  0  0  0  0
   -0.1776    0.0516   -2.9353 C   0  0  0  0  0  0  0  0  0  0  0  0
   -0.7553   -1.2013   -2.2834 C   0  0  0  0  0  0  0  0  0  0  0  0
  1  2  1  0  0  0  0 
  3  2  1  0  0  0  0 
  3  4  1  0  0  0  0 
  3  5  1  0  0  0  0 
  6  4  2  0  0  0  0 
  4  7  1  0  0  0  0 
  5  8  1  0  0  0  0 
  6  8  1  0  0  0  0 
  6  9  1  0  0  0  0 
 10  7  2  0  0  0  0 
 11  9  2  0  0  0  0 
 11 10  1  0  0  0  0 
 12 11  1  0  0  0  0 
 12 13  1  0  0  0  0 
 12 14  1  0  0  0  0 
 13 15  1  0  0  0  0 
 14 16  1  0  0  0  0 
 15 17  1  0  0  0  0 
 16 17  1  0  0  0  0 
M  END
> <Name>
1-Indanmethanol, 5-cyclohexyl-, (-)-

> <Source>
Chemidplus3DMolFile

> <Tox>
3.145

> <CAS>
38032-72-3

$$$$

  CDK

 17 17  0  0  0  0  0  0  0  0999 V2000
    1.9789    1.2709   -1.9311 S   0  0  0  0  0  0  0  0  0  0  0  0
    2.6560    0.9051    0.0525 P   0  0  0  0  0  0  0  0  0  0  0  0
    2.5097   -0.1618   -2.8907 C   0  0  0  0  0  0  0  0  0  0  0  0
    2.4944    2.3402    1.3807 S   0  0  0  0  0  0  0  0  0  0  0  0
    1.9453   -0.4816    0.5488 O   0  0  0  0  0  0  0  0  0  0  0  0
    4.1881    0.3452   -0.0621 O   0  0  0  0  0  0  0  0  0  0  0  0
    2.0941   -0.0376   -4.3283 C   0  0  0  0  0  0  0  0  0  0  0  0
    0.5506   -0.5219    0.8012 C   0  0  0  0  0  0  0  0  0  0  0  0
    5.2369    1.2055   -0.4754 C   0  0  0  0  0  0  0  0  0  0  0  0
    3.1462    0.7139   -5.4364 S   0  0  0  0  0  0  0  0  0  0  0  0
    0.9638   -0.4713   -4.8060 N   0  0  0  0  0  0  0  0  0  0  0  0
    0.1697   -1.9187    1.2432 C   0  0  0  0  0  0  0  0  0  0  0  0
    6.5355    0.4277   -0.4909 C   0  0  0  0  0  0  0  0  0  0  0  0
    1.9414    0.4016   -6.6168 C   0  0  0  0  0  0  0  0  0  0  0  0
    0.8700   -0.2126   -6.1624 N   0  0  0  0  0  0  0  0  0  0  0  0
    2.0782    0.7519   -7.8875 O   0  0  0  0  0  0  0  0  0  0  0  0
    1.0052    0.4439   -8.8026 C   0  0  0  0  0  0  0  0  0  0  0  0
  1  2  1  0  0  0  0 
  1  3  1  0  0  0  0 
  4  2  2  0  0  0  0 
  2  5  1  0  0  0  0 
  2  6  1  0  0  0  0 
  3  7  1  0  0  0  0 
  5  8  1  0  0  0  0 
  6  9  1  0  0  0  0 
 10  7  1  0  0  0  0 
 11  7  2  0  0  0  0 
  8 12  1  0  0  0  0 
  9 13  1  0  0  0  0 
 10 14  1  0  0  0  0 
 11 15  1  0  0  0  0 
 16 14  1  0  0  0  0 
 15 14  2  0  0  0  0 
 16 17  1  0  0  0  0 
M  END
> <Name>
Phosphorodithioic acid, O,O-diethyl S-((5-methoxy-1,3,4-thiadiazol-2-yl)methyl) ester

> <Source>
Chemidplus3DMolFile

> <Tox>
3.966

> <CAS>
38090-82-3

$$$$

  CDK

 17 17  0  0  0  0  0  0  0  0999 V2000
    0.8644   -4.7126   -0.0720 S   0  0  0  0  0  0  0  0  0  0  0  0
    0.6887   -2.6964   -0.6379 P   0  0  0  0  0  0  0  0  0  0  0  0
    2.5485   -4.8859    0.5504 C   0  0  0  0  0  0  0  0  0  0  0  0
    0.8541   -1.7560    0.6784 O   0  0  0  0  0  0  0  0  0  0  0  0
   -0.8260   -2.3670   -1.1280 O   0  0  0  0  0  0  0  0  0  0  0  0
    1.7010   -2.3656   -1.7040 O   0  0  0  0  0  0  0  0  0  0  0  0
    2.7903   -3.9809    1.7239 C   0  0  0  0  0  0  0  0  0  0  0  0
    0.7182   -0.3523    0.5359 C   0  0  0  0  0  0  0  0  0  0  0  0
   -1.9211   -2.6111   -0.2623 C   0  0  0  0  0  0  0  0  0  0  0  0
    4.2295   -3.0732    1.7918 S   0  0  0  0  0  0  0  0  0  0  0  0
    1.9643   -3.8316    2.7186 N   0  0  0  0  0  0  0  0  0  0  0  0
    0.9125    0.3016    1.8873 C   0  0  0  0  0  0  0  0  0  0  0  0
   -3.2027   -2.2182   -0.9656 C   0  0  0  0  0  0  0  0  0  0  0  0
    3.6385   -2.4615    3.2815 C   0  0  0  0  0  0  0  0  0  0  0  0
    2.4639   -2.9315    3.6437 N   0  0  0  0  0  0  0  0  0  0  0  0
    4.3121   -1.5843    4.0113 O   0  0  0  0  0  0  0  0  0  0  0  0
    3.7274   -1.1316    5.2510 C   0  0  0  0  0  0  0  0  0  0  0  0
  1  2  1  0  0  0  0 
  1  3  1  0  0  0  0 
  2  4  1  0  0  0  0 
  2  5  1  0  0  0  0 
  2  6  2  0  0  0  0 
  3  7  1  0  0  0  0 
  4  8  1  0  0  0  0 
  5  9  1  0  0  0  0 
 10  7  1  0  0  0  0 
 11  7  2  0  0  0  0 
  8 12  1  0  0  0  0 
  9 13  1  0  0  0  0 
 10 14  1  0  0  0  0 
 11 15  1  0  0  0  0 
 16 14  1  0  0  0  0 
 15 14  2  0  0  0  0 
 16 17  1  0  0  0  0 
M  END
> <Name>
Phosphorothioic acid, O,O-diethyl S-((5-methoxy-1,3,4-thiadiazol-2-yl)methyl) ester

> <Source>
Chemidplus3DMolFile

> <Tox>
4.116

> <CAS>
38090-84-5

$$$$

  CDK

 18 18  0  0  0  0  0  0  0  0999 V2000
    1.9789    1.2709   -1.9311 S   0  0  0  0  0  0  0  0  0  0  0  0
    2.6560    0.9051    0.0525 P   0  0  0  0  0  0  0  0  0  0  0  0
    2.7843    2.8038   -2.4375 C   0  0  0  0  0  0  0  0  0  0  0  0
    2.4944    2.3402    1.3807 S   0  0  0  0  0  0  0  0  0  0  0  0
    4.1881    0.3452   -0.0621 O   0  0  0  0  0  0  0  0  0  0  0  0
    1.9453   -0.4816    0.5488 O   0  0  0  0  0  0  0  0  0  0  0  0
    4.2794    2.6694   -2.4040 C   0  0  0  0  0  0  0  0  0  0  0  0
    4.4968   -0.7248   -0.9400 C   0  0  0  0  0  0  0  0  0  0  0  0
    0.5506   -0.5219    0.8012 C   0  0  0  0  0  0  0  0  0  0  0  0
    5.0980    2.1343   -3.7981 S   0  0  0  0  0  0  0  0  0  0  0  0
    5.0178    2.9373   -1.3662 N   0  0  0  0  0  0  0  0  0  0  0  0
    5.9759   -1.0319   -0.8421 C   0  0  0  0  0  0  0  0  0  0  0  0
    0.1697   -1.9187    1.2432 C   0  0  0  0  0  0  0  0  0  0  0  0
    6.5359    2.2969   -2.8769 C   0  0  0  0  0  0  0  0  0  0  0  0
    6.3559    2.7177   -1.6431 N   0  0  0  0  0  0  0  0  0  0  0  0
    7.7347    2.0199   -3.3687 O   0  0  0  0  0  0  0  0  0  0  0  0
    8.8869    2.1807   -2.5356 C   0  0  0  0  0  0  0  0  0  0  0  0
   10.1211    1.7888   -3.3198 C   0  0  0  0  0  0  0  0  0  0  0  0
  1  2  1  0  0  0  0 
  1  3  1  0  0  0  0 
  4  2  2  0  0  0  0 
  2  5  1  0  0  0  0 
  2  6  1  0  0  0  0 
  3  7  1  0  0  0  0 
  5  8  1  0  0  0  0 
  6  9  1  0  0  0  0 
 10  7  1  0  0  0  0 
 11  7  2  0  0  0  0 
  8 12  1  0  0  0  0 
  9 13  1  0  0  0  0 
 10 14  1  0  0  0  0 
 11 15  1  0  0  0  0 
 16 14  1  0  0  0  0 
 15 14  2  0  0  0  0 
 16 17  1  0  0  0  0 
 17 18  1  0  0  0  0 
M  END
> <Name>
Phosphorodithioic acid, O,O-diethyl S-((5-ethoxy-1,3,4-thiadiazol-2-yl)methyl) ester

> <Source>
Chemidplus3DMolFile

> <Tox>
4.180

> <CAS>
38090-86-7

$$$$

  CDK

 16 16  0  0  0  0  0  0  0  0999 V2000
    0.8644   -4.7126   -0.0720 S   0  0  0  0  0  0  0  0  0  0  0  0
    2.9146   -4.2626   -0.1752 P   0  0  0  0  0  0  0  0  0  0  0  0
    0.5102   -5.6577   -1.5669 C   0  0  0  0  0  0  0  0  0  0  0  0
    3.3194   -3.3234    1.0891 O   0  0  0  0  0  0  0  0  0  0  0  0
    3.2293   -3.3051   -1.4507 O   0  0  0  0  0  0  0  0  0  0  0  0
    3.7239   -5.5329   -0.2221 O   0  0  0  0  0  0  0  0  0  0  0  0
   -0.9350   -6.0651   -1.6515 C   0  0  0  0  0  0  0  0  0  0  0  0
    4.6531   -2.8544    1.1916 C   0  0  0  0  0  0  0  0  0  0  0  0
    2.5643   -2.0609   -1.5855 C   0  0  0  0  0  0  0  0  0  0  0  0
   -2.0458   -5.0280   -2.4173 S   0  0  0  0  0  0  0  0  0  0  0  0
   -1.4125   -7.1748   -1.1702 N   0  0  0  0  0  0  0  0  0  0  0  0
   -3.2307   -6.2102   -2.0423 C   0  0  0  0  0  0  0  0  0  0  0  0
   -2.7743   -7.2644   -1.4004 N   0  0  0  0  0  0  0  0  0  0  0  0
   -4.9148   -6.0455   -2.4704 S   0  0  0  0  0  0  0  0  0  0  0  0
   -5.6510   -7.5812   -1.8200 C   0  0  0  0  0  0  0  0  0  0  0  0
   -7.1408   -7.6193   -2.1029 C   0  0  0  0  0  0  0  0  0  0  0  0
  1  2  1  0  0  0  0 
  1  3  1  0  0  0  0 
  2  4  1  0  0  0  0 
  2  5  1  0  0  0  0 
  2  6  2  0  0  0  0 
  3  7  1  0  0  0  0 
  4  8  1  0  0  0  0 
  5  9  1  0  0  0  0 
 10  7  1  0  0  0  0 
 11  7  2  0  0  0  0 
 10 12  1  0  0  0  0 
 11 13  1  0  0  0  0 
 14 12  1  0  0  0  0 
 13 12  2  0  0  0  0 
 14 15  1  0  0  0  0 
 15 16  1  0  0  0  0 
M  END
> <Name>
Phosphorothioic acid, O,O-dimethyl S-((5-(ethylthio)-1,3,4-thiadiazol-2-yl)methyl) ester

> <Source>
Chemidplus3DMolFile

> <Tox>
2.592

> <CAS>
38090-97-0

$$$$

  CDK

 13 13  0  0  0  0  0  0  0  0999 V2000
    6.1004    1.5125    0.0000 C   0  0  0  0  0  0  0  0  0  0  0  0
    6.1004    2.4704    0.0000 C   0  0  0  0  0  0  0  0  0  0  0  0
    5.1929    1.0083    0.0000 C   0  0  0  0  0  0  0  0  0  0  0  0
    5.1929    2.9746    0.0000 C   0  0  0  0  0  0  0  0  0  0  0  0
    6.9575    2.9746    0.0000 N   0  0  0  0  0  0  0  0  0  0  0  0
    4.3358    1.5125    0.0000 C   0  0  0  0  0  0  0  0  0  0  0  0
    4.3358    2.4704    0.0000 C   0  0  0  0  0  0  0  0  0  0  0  0
    3.4787    1.0083    0.0000 C   0  0  0  0  0  0  0  0  0  0  0  0
    2.6217    1.5125    0.0000 C   0  0  0  0  0  0  0  0  0  0  0  0
    3.4787    0.0000    0.0000 O   0  0  0  0  0  0  0  0  0  0  0  0
    1.7142    0.9579    0.0000 C   0  0  0  0  0  0  0  0  0  0  0  0
    0.8571    1.4621    0.0000 C   0  0  0  0  0  0  0  0  0  0  0  0
    0.0000    1.0083    0.0000 C   0  0  0  0  0  0  0  0  0  0  0  0
  2  1  2  0  0  0  0 
  1  3  1  0  0  0  0 
  4  2  1  0  0  0  0 
  2  5  1  0  0  0  0 
  3  6  2  0  0  0  0 
  7  4  2  0  0  0  0 
  6  7  1  0  0  0  0 
  6  8  1  0  0  0  0 
  8  9  1  0  0  0  0 
  8 10  2  0  0  0  0 
  9 11  1  0  0  0  0 
 11 12  1  0  0  0  0 
 13 12  1  0  0  0  0 
M  END
> <Name>
1-Pentanone, 1-(4-aminophenyl)-

> <Source>
NIST2DMolFile

> <Tox>
3.324

> <CAS>
38237-74-0

$$$$

  CDK

 18 18  0  0  0  0  0  0  0  0999 V2000
    1.9539    0.6513    0.0000 C   0  0  0  0  0  0  0  0  0  0  0  0
    2.9559    0.6513    0.0000 O   0  0  0  0  0  0  0  0  0  0  0  0
    3.4569    1.5030    0.0000 P   0  0  0  0  0  0  0  0  0  0  0  0
    4.3587    1.0020    0.0000 O   0  0  0  0  0  0  0  0  0  0  0  0
    3.9579    2.3547    0.0000 S   0  0  0  0  0  0  0  0  0  0  0  0
    2.6052    2.0040    0.0000 O   0  0  0  0  0  0  0  0  0  0  0  0
    4.3587    0.0000    0.0000 C   0  0  0  0  0  0  0  0  0  0  0  0
    2.6052    3.0060    0.0000 C   0  0  0  0  0  0  0  0  0  0  0  0
    3.4569    3.5070    0.0000 N   0  0  0  0  0  0  0  0  0  0  0  0
    1.7535    3.5070    0.0000 C   0  0  0  0  0  0  0  0  0  0  0  0
    3.4569    4.5090    0.0000 C   0  0  0  0  0  0  0  0  0  0  0  0
    1.7535    4.5090    0.0000 C   0  0  0  0  0  0  0  0  0  0  0  0
    4.3587    5.0100    0.0000 C   0  0  0  0  0  0  0  0  0  0  0  0
    2.6052    5.0100    0.0000 N   0  0  0  0  0  0  0  0  0  0  0  0
    0.8517    5.0100    0.0000 O   0  0  0  0  0  0  0  0  0  0  0  0
    5.2104    4.5090    0.0000 C   0  0  0  0  0  0  0  0  0  0  0  0
    0.0000    4.5090    0.0000 C   0  0  0  0  0  0  0  0  0  0  0  0
    0.0000    3.5070    0.0000 C   0  0  0  0  0  0  0  0  0  0  0  0
  1  2  1  0  0  0  0 
  2  3  1  0  0  0  0 
  4  3  1  0  0  0  0 
  5  3  2  0  0  0  0 
  3  6  1  0  0  0  0 
  7  4  1  0  0  0  0 
  6  8  1  0  0  0  0 
  9  8  2  0  0  0  0 
  8 10  1  0  0  0  0 
 11  9  1  0  0  0  0 
 10 12  2  0  0  0  0 
 13 11  1  0  0  0  0 
 14 11  2  0  0  0  0 
 15 12  1  0  0  0  0 
 12 14  1  0  0  0  0 
 16 13  1  0  0  0  0 
 17 15  1  0  0  0  0 
 18 17  1  0  0  0  0 
M  END
> <Name>
Phosphorothioic acid, O,O-dimethyl O-(6-ethoxy-2-ethyl-4-pyrimidinyl) ester

> <Source>
NIST2DMolFile

> <Tox>
2.211

> <CAS>
38260-54-7

$$$$

  CDK

 17 18  0  0  0  0  0  0  0  0999 V2000
    5.7600   -5.9833    0.0000 N   0  0  0  0  0  0  0  0  0  0  0  0
    4.6032   -6.6455    0.0000 N   0  0  0  0  0  0  0  0  0  0  0  0
    5.7600   -4.6511    0.0000 C   0  0  0  0  0  0  0  0  0  0  0  0
    4.6032   -7.9778    0.0000 C   0  0  0  0  0  0  0  0  0  0  0  0
    3.4544   -5.9833    0.0000 C   0  0  0  0  0  0  0  0  0  0  0  0
    4.6032   -3.9889    0.0000 C   0  0  0  0  0  0  0  0  0  0  0  0
    2.3056   -6.6455    0.0000 O   0  0  0  0  0  0  0  0  0  0  0  0
    3.4544   -4.6511    0.0000 C   0  0  0  0  0  0  0  0  0  0  0  0
    4.6032   -2.6566    0.0000 N   0  0  0  0  0  0  0  0  0  0  0  0
    2.3056   -3.9889    0.0000 O   0  0  0  0  0  0  0  0  0  0  0  0
    3.4544   -1.9944    0.0000 C   0  0  0  0  0  0  0  0  0  0  0  0
    5.7600   -1.9944    0.0000 C   0  0  0  0  0  0  0  0  0  0  0  0
    1.1488   -4.6511    0.0000 C   0  0  0  0  0  0  0  0  0  0  0  0
    3.4544   -0.6622    0.0000 C   0  0  0  0  0  0  0  0  0  0  0  0
    5.7600   -0.6622    0.0000 C   0  0  0  0  0  0  0  0  0  0  0  0
    0.0000   -3.9889    0.0000 C   0  0  0  0  0  0  0  0  0  0  0  0
    4.6032   -0.0000    0.0000 O   0  0  0  0  0  0  0  0  0  0  0  0
  1  2  1  0  0  0  0 
  1  3  2  0  0  0  0 
  2  4  1  0  0  0  0 
  2  5  1  0  0  0  0 
  6  3  1  0  0  0  0 
  5  7  2  0  0  0  0 
  5  8  1  0  0  0  0 
  8  6  2  0  0  0  0 
  6  9  1  0  0  0  0 
  8 10  1  0  0  0  0 
  9 11  1  0  0  0  0 
  9 12  1  0  0  0  0 
 10 13  1  0  0  0  0 
 11 14  1  0  0  0  0 
 15 12  1  0  0  0  0 
 13 16  1  0  0  0  0 
 14 17  1  0  0  0  0 
 17 15  1  0  0  0  0 
M  END
> <Name>
4-Ethoxy-2-methyl-5-(4-morpholinyl)-3(2H)-pyridazinone

> <Source>
DSSTox2DMolFile

> <Tox>
2.100

> <CAS>
38957-41-4

$$$$

  CDK

 14 14  0  0  0  0  0  0  0  0999 V2000
    0.0922    1.4808    0.0004 C   0  0  0  0  0  0  0  0  0  0  0  0
    0.5845    0.4112    0.9521 C   0  0  0  0  0  0  0  0  0  0  0  0
    0.7616    2.4620   -0.3107 O   0  0  0  0  0  0  0  0  0  0  0  0
   -1.1815    1.4210   -0.5888 N   0  0  0  0  0  0  0  0  0  0  0  0
    1.7547   -0.3490    0.3447 C   0  0  0  0  0  0  0  0  0  0  0  0
   -2.1948    0.4380   -0.2890 C   0  0  0  0  0  0  0  0  0  0  0  0
    1.5895   -1.3987   -0.2405 O   0  0  0  0  0  0  0  0  0  0  0  0
    3.1052    0.2898    0.5343 C   0  0  0  0  0  0  0  0  0  0  0  0
   -1.9628   -0.9243   -0.5063 C   0  0  0  0  0  0  0  0  0  0  0  0
   -3.4451    0.8757    0.1653 C   0  0  0  0  0  0  0  0  0  0  0  0
    4.3987   -0.6887   -0.1647 Cl  0  0  0  0  0  0  0  0  0  0  0  0
   -2.9768   -1.8402   -0.2476 C   0  0  0  0  0  0  0  0  0  0  0  0
   -4.4490   -0.0518    0.4139 C   0  0  0  0  0  0  0  0  0  0  0  0
   -4.2159   -1.4086    0.2127 C   0  0  0  0  0  0  0  0  0  0  0  0
  1  2  1  0  0  0  0 
  1  3  2  0  0  0  0 
  1  4  1  0  0  0  0 
  2  5  1  0  0  0  0 
  4  6  1  0  0  0  0 
  5  7  2  0  0  0  0 
  5  8  1  0  0  0  0 
  6  9  1  0  0  0  0 
  6 10  2  0  0  0  0 
  8 11  1  0  0  0  0 
  9 12  2  0  0  0  0 
 13 10  1  0  0  0  0 
 12 14  1  0  0  0  0 
 14 13  2  0  0  0  0 
M  END
> <Name>
Butanamide, 4-chloro-3-oxo-N-phenyl-

> <Source>
DougDB3DMolFile

> <Tox>
2.064

> <CAS>
39082-00-3

$$$$

  CDK

 15 14  0  0  0  0  0  0  0  0999 V2000
    3.4947    2.9954    0.0000 N   0  0  0  0  0  0  0  0  0  0  0  0
    4.3434    2.4962    0.0000 C   0  0  0  0  0  0  0  0  0  0  0  0
    2.5960    2.4962    0.0000 O   0  0  0  0  0  0  0  0  0  0  0  0
    4.3434    1.4977    0.0000 C   0  0  0  0  0  0  0  0  0  0  0  0
    5.1921    2.9954    0.0000 C   0  0  0  0  0  0  0  0  0  0  0  0
    1.7473    2.9954    0.0000 C   0  0  0  0  0  0  0  0  0  0  0  0
    3.4947    0.9985    0.0000 S   0  0  0  0  0  0  0  0  0  0  0  0
    4.6928    3.8441    0.0000 C   0  0  0  0  0  0  0  0  0  0  0  0
    5.6913    2.1467    0.0000 C   0  0  0  0  0  0  0  0  0  0  0  0
    6.0907    3.4947    0.0000 C   0  0  0  0  0  0  0  0  0  0  0  0
    0.8986    2.4962    0.0000 N   0  0  0  0  0  0  0  0  0  0  0  0
    1.7473    3.9939    0.0000 O   0  0  0  0  0  0  0  0  0  0  0  0
    2.5960    1.4977    0.0000 C   0  0  0  0  0  0  0  0  0  0  0  0
    3.4947    0.0000    0.0000 O   0  0  0  0  0  0  0  0  0  0  0  0
    0.0000    2.9954    0.0000 C   0  0  0  0  0  0  0  0  0  0  0  0
  1  2  2  0  0  0  0 
  1  3  1  0  0  0  0 
  2  4  1  0  0  0  0 
  2  5  1  0  0  0  0 
  3  6  1  0  0  0  0 
  4  7  1  0  0  0  0 
  5  8  1  0  0  0  0 
  5  9  1  0  0  0  0 
  5 10  1  0  0  0  0 
  6 11  1  0  0  0  0 
  6 12  2  0  0  0  0 
  7 13  1  0  0  0  0 
  7 14  2  0  0  0  0 
 11 15  1  0  0  0  0 
M  END
> <Name>
2-Butanone, 3,3-dimethyl-1-(methylsulfinyl)-, O-((methylamino)carbonyl)oxime

> <Source>
NIST2DMolFile

> <Tox>
4.790

> <CAS>
39184-27-5

$$$$

  CDK

 16 15  0  0  0  0  0  0  0  0999 V2000
    2.9423    3.5408    0.0000 C   0  0  0  0  0  0  0  0  0  0  0  0
    3.4410    2.6431    0.0000 C   0  0  0  0  0  0  0  0  0  0  0  0
    1.9449    3.5408    0.0000 S   0  0  0  0  0  0  0  0  0  0  0  0
    4.4384    2.6431    0.0000 C   0  0  0  0  0  0  0  0  0  0  0  0
    2.9922    1.7953    0.0000 N   0  0  0  0  0  0  0  0  0  0  0  0
    1.9449    2.4935    0.0000 C   0  0  0  0  0  0  0  0  0  0  0  0
    1.9449    4.4883    0.0000 O   0  0  0  0  0  0  0  0  0  0  0  0
    0.9974    3.5408    0.0000 O   0  0  0  0  0  0  0  0  0  0  0  0
    4.4384    3.6405    0.0000 C   0  0  0  0  0  0  0  0  0  0  0  0
    4.4384    1.6457    0.0000 C   0  0  0  0  0  0  0  0  0  0  0  0
    5.4358    2.6431    0.0000 C   0  0  0  0  0  0  0  0  0  0  0  0
    1.9449    1.7953    0.0000 O   0  0  0  0  0  0  0  0  0  0  0  0
    1.4961    0.9475    0.0000 C   0  0  0  0  0  0  0  0  0  0  0  0
    0.4987    0.9475    0.0000 N   0  0  0  0  0  0  0  0  0  0  0  0
    2.0447    0.0997    0.0000 O   0  0  0  0  0  0  0  0  0  0  0  0
    0.0000    0.0000    0.0000 C   0  0  0  0  0  0  0  0  0  0  0  0
  1  2  1  0  0  0  0 
  1  3  1  0  0  0  0 
  2  4  1  0  0  0  0 
  2  5  2  0  0  0  0 
  3  6  1  0  0  0  0 
  3  7  2  0  0  0  0 
  3  8  2  0  0  0  0 
  4  9  1  0  0  0  0 
  4 10  1  0  0  0  0 
  4 11  1  0  0  0  0 
  5 12  1  0  0  0  0 
 12 13  1  0  0  0  0 
 13 14  1  0  0  0  0 
 13 15  2  0  0  0  0 
 14 16  1  0  0  0  0 
M  END
> <Name>
2-Butanone, 3,3-dimethyl-1-(methylsulfonyl)-, O-((methylamino)carbonyl)oxime

> <Source>
NIST2DMolFile

> <Tox>
5.120

> <CAS>
39184-59-3

$$$$

  CDK

 14 13  0  0  0  0  0  0  0  0999 V2000
    5.2033    3.0019    0.0000 C   0  0  0  0  0  0  0  0  0  0  0  0
    4.3528    2.5016    0.0000 C   0  0  0  0  0  0  0  0  0  0  0  0
    4.7030    3.8524    0.0000 C   0  0  0  0  0  0  0  0  0  0  0  0
    5.7036    2.1514    0.0000 C   0  0  0  0  0  0  0  0  0  0  0  0
    6.1039    3.5022    0.0000 C   0  0  0  0  0  0  0  0  0  0  0  0
    3.5022    3.0019    0.0000 N   0  0  0  0  0  0  0  0  0  0  0  0
    4.3528    1.5010    0.0000 C   0  0  0  0  0  0  0  0  0  0  0  0
    2.6016    2.5016    0.0000 O   0  0  0  0  0  0  0  0  0  0  0  0
    3.5022    1.0006    0.0000 S   0  0  0  0  0  0  0  0  0  0  0  0
    1.7511    3.0019    0.0000 C   0  0  0  0  0  0  0  0  0  0  0  0
    3.5022    0.0000    0.0000 C   0  0  0  0  0  0  0  0  0  0  0  0
    0.9006    2.5016    0.0000 N   0  0  0  0  0  0  0  0  0  0  0  0
    1.7511    4.0025    0.0000 O   0  0  0  0  0  0  0  0  0  0  0  0
    0.0000    3.0019    0.0000 C   0  0  0  0  0  0  0  0  0  0  0  0
  1  2  1  0  0  0  0 
  1  3  1  0  0  0  0 
  1  4  1  0  0  0  0 
  1  5  1  0  0  0  0 
  2  6  2  0  0  0  0 
  2  7  1  0  0  0  0 
  6  8  1  0  0  0  0 
  7  9  1  0  0  0  0 
  8 10  1  0  0  0  0 
  9 11  1  0  0  0  0 
 10 12  1  0  0  0  0 
 10 13  2  0  0  0  0 
 12 14  1  0  0  0  0 
M  END
> <Name>
2-Butanone, 3,3-dimethyl-1-(methylthio)-, O-((methylamino)carbonyl)oxime

> <Source>
NIST2DMolFile

> <Tox>
4.410

> <CAS>
39196-18-4

$$$$

  CDK

 37 41  0  0  0  0  0  0  0  0999 V2000
    2.2441    1.3325    0.4009 O   0  0  0  0  0  0  0  0  0  0  0  0
    3.3626    2.0011   -0.1788 C   0  0  0  0  0  0  0  0  0  0  0  0
    1.0140    1.8854   -0.0589 C   0  0  0  0  0  0  0  0  0  0  0  0
    3.7295    1.3485   -1.5142 C   0  0  0  0  0  0  0  0  0  0  0  0
    4.4853    1.9834    0.8280 C   0  0  0  0  0  0  0  0  0  0  0  0
    0.9396    3.2715    0.2724 O   0  0  0  0  0  0  0  0  0  0  0  0
   -0.1237    1.1226    0.6200 C   0  0  0  0  0  0  0  0  0  0  0  0
    4.4810    0.0289   -1.3392 C   0  0  0  0  0  0  0  0  0  0  0  0
    5.5858    1.1206    0.6933 C   0  0  0  0  0  0  0  0  0  0  0  0
    4.4058    2.8281    1.9488 C   0  0  0  0  0  0  0  0  0  0  0  0
   -0.2702    3.8873   -0.1870 C   0  0  0  0  0  0  0  0  0  0  0  0
   -1.4975    1.7051    0.2665 C   0  0  0  0  0  0  0  0  0  0  0  0
    4.8394   -0.4508   -2.6348 O   0  0  0  0  0  0  0  0  0  0  0  0
    5.7480    0.2107   -0.4998 C   0  0  0  0  0  0  0  0  0  0  0  0
    3.5822   -1.0452   -0.7939 C   0  0  0  0  0  0  0  0  0  0  0  0
    6.5973    1.1340    1.6684 C   0  0  0  0  0  0  0  0  0  0  0  0
    3.3137    3.6439    2.0612 O   0  0  0  0  0  0  0  0  0  0  0  0
    5.4138    2.8279    2.9196 C   0  0  0  0  0  0  0  0  0  0  0  0
   -1.4933    3.2275    0.4754 C   0  0  0  0  0  0  0  0  0  0  0  0
   -0.1632    5.3772    0.1176 C   0  0  0  0  0  0  0  0  0  0  0  0
   -1.8338    1.3861   -1.1224 N   0  0  0  0  0  0  0  0  0  0  0  0
    3.8750   -1.6787    0.2190 O   0  0  0  0  0  0  0  0  0  0  0  0
    2.3054   -1.3057   -1.5464 C   0  0  0  0  0  0  0  0  0  0  0  0
    7.6705    0.3040    1.4956 O   0  0  0  0  0  0  0  0  0  0  0  0
    6.5104    1.9813    2.7789 C   0  0  0  0  0  0  0  0  0  0  0  0
    5.3054    3.7278    4.0863 C   0  0  0  0  0  0  0  0  0  0  0  0
   -1.4835    3.4664    1.8849 O   0  0  0  0  0  0  0  0  0  0  0  0
    7.5853    1.9708    3.7924 C   0  0  0  0  0  0  0  0  0  0  0  0
    4.3413    4.4732    4.2093 O   0  0  0  0  0  0  0  0  0  0  0  0
    6.3772    3.7161    5.1025 C   0  0  0  0  0  0  0  0  0  0  0  0
    8.5509    1.2277    3.6673 O   0  0  0  0  0  0  0  0  0  0  0  0
    7.4776    2.8683    4.9606 C   0  0  0  0  0  0  0  0  0  0  0  0
    6.2862    4.5621    6.2143 C   0  0  0  0  0  0  0  0  0  0  0  0
    8.4871    2.8661    5.9306 C   0  0  0  0  0  0  0  0  0  0  0  0
    5.2412    5.4142    6.4169 O   0  0  0  0  0  0  0  0  0  0  0  0
    7.2943    4.5566    7.1787 C   0  0  0  0  0  0  0  0  0  0  0  0
    8.3924    3.7105    7.0372 C   0  0  0  0  0  0  0  0  0  0  0  0
  1  2  1  0  0  0  0 
  1  3  1  0  0  0  0 
  2  4  1  0  0  0  0 
  2  5  1  0  0  0  0 
  6  3  1  0  0  0  0 
  3  7  1  0  0  0  0 
  8  4  1  0  0  0  0 
  5  9  2  0  0  0  0 
  5 10  1  0  0  0  0 
  6 11  1  0  0  0  0 
  7 12  1  0  0  0  0 
 13  8  1  0  0  0  0 
  8 14  1  0  0  0  0 
  8 15  1  0  0  0  0 
 14  9  1  0  0  0  0 
  9 16  1  0  0  0  0 
 17 10  1  0  0  0  0 
 10 18  2  0  0  0  0 
 19 11  1  0  0  0  0 
 11 20  1  0  0  0  0 
 21 12  1  0  0  0  0 
 12 19  1  0  0  0  0 
 22 15  2  0  0  0  0 
 15 23  1  0  0  0  0 
 24 16  1  0  0  0  0 
 16 25  2  0  0  0  0 
 18 25  1  0  0  0  0 
 18 26  1  0  0  0  0 
 27 19  1  0  0  0  0 
 25 28  1  0  0  0  0 
 29 26  2  0  0  0  0 
 26 30  1  0  0  0  0 
 31 28  2  0  0  0  0 
 28 32  1  0  0  0  0 
 30 32  2  0  0  0  0 
 30 33  1  0  0  0  0 
 32 34  1  0  0  0  0 
 35 33  1  0  0  0  0 
 33 36  2  0  0  0  0 
 34 37  2  0  0  0  0 
 36 37  1  0  0  0  0 
M  END
> <Name>
Carminomycin

> <Source>
Chemidplus3DMolFile

> <Tox>
4.349

> <CAS>
39472-31-6

$$$$

  CDK

 26 27  0  0  0  0  0  0  0  0999 V2000
    1.1529   -4.6598    0.0000 C   0  0  0  0  0  0  0  0  0  0  0  0
    0.0000   -3.9907    0.0000 C   0  0  0  0  0  0  0  0  0  0  0  0
    2.3057   -3.9907    0.0000 C   0  0  0  0  0  0  0  0  0  0  0  0
    1.1529   -5.9900    0.0000 N   0  0  0  0  0  0  0  0  0  0  0  0
    2.3057   -2.6604    0.0000 C   0  0  0  0  0  0  0  0  0  0  0  0
    3.4586   -4.6598    0.0000 C   0  0  0  0  0  0  0  0  0  0  0  0
    2.3057   -6.6511    0.0000 C   0  0  0  0  0  0  0  0  0  0  0  0
    3.4586   -1.9994    0.0000 O   0  0  0  0  0  0  0  0  0  0  0  0
    1.1529   -1.9994    0.0000 O   0  0  0  0  0  0  0  0  0  0  0  0
    4.6034   -3.9907    0.0000 C   0  0  0  0  0  0  0  0  0  0  0  0
    3.4586   -5.9900    0.0000 C   0  0  0  0  0  0  0  0  0  0  0  0
    2.3057   -7.9813    0.0000 C   0  0  0  0  0  0  0  0  0  0  0  0
    0.0000   -2.6604    0.0000 C   0  0  0  0  0  0  0  0  0  0  0  0
    5.7562   -4.6598    0.0000 C   0  0  0  0  0  0  0  0  0  0  0  0
    4.6034   -2.6604    0.0000 C   0  0  0  0  0  0  0  0  0  0  0  0
    4.6034   -6.6511    0.0000 C   0  0  0  0  0  0  0  0  0  0  0  0
    6.9091   -3.9907    0.0000 C   0  0  0  0  0  0  0  0  0  0  0  0
    5.7562   -1.9994    0.0000 C   0  0  0  0  0  0  0  0  0  0  0  0
    4.6034   -7.9813    0.0000 O   0  0  0  0  0  0  0  0  0  0  0  0
    5.7562   -5.9900    0.0000 O   0  0  0  0  0  0  0  0  0  0  0  0
    6.9091   -2.6604    0.0000 C   0  0  0  0  0  0  0  0  0  0  0  0
    5.7562   -0.6691    0.0000 N   0  0  0  0  0  0  0  0  0  0  0  0
    6.9091   -6.6511    0.0000 C   0  0  0  0  0  0  0  0  0  0  0  0
    6.9091   -0.0000    0.0000 O   0  0  0  0  0  0  0  0  0  0  0  0
    4.6034   -0.0000    0.0000 O   0  0  0  0  0  0  0  0  0  0  0  0
    8.0619   -5.9900    0.0000 C   0  0  0  0  0  0  0  0  0  0  0  0
  1  2  1  0  0  0  0 
  1  3  2  0  0  0  0 
  1  4  1  0  0  0  0 
  3  5  1  0  0  0  0 
  3  6  1  0  0  0  0 
  7  4  1  0  0  0  0 
  5  8  2  0  0  0  0 
  5  9  1  0  0  0  0 
  6 10  1  0  0  0  0 
  6 11  1  0  0  0  0 
 11  7  2  0  0  0  0 
  7 12  1  0  0  0  0 
  9 13  1  0  0  0  0 
 10 14  2  0  0  0  0 
 10 15  1  0  0  0  0 
 11 16  1  0  0  0  0 
 14 17  1  0  0  0  0 
 18 15  2  0  0  0  0 
 16 19  2  0  0  0  0 
 16 20  1  0  0  0  0 
 17 21  2  0  0  0  0 
 21 18  1  0  0  0  0 
 18 22  1  0  0  0  0 
 20 23  1  0  0  0  0 
 22 24  1  0  0  0  0 
 22 25  2  0  0  0  0 
 23 26  1  0  0  0  0 
M  CHG  1  22   1
M  CHG  1  24  -1
M  END
> <Name>
3,5-Pyridinedicarboxylic acid, 1,4-dihydro-2,6-dimethyl-4-(3-nitrophenyl)-, ethyl methyl ester, (+-)-

> <Source>
DSSTox2DMolFile

> <Tox>
1.370

> <CAS>
39562-70-4

$$$$

  CDK

 15 16  0  0  0  0  0  0  0  0999 V2000
    0.0000    0.0000    0.0000 S   0  0  0  0  0  0  0  0  0  0  0  0
    0.6996    1.2127    0.0000 C   0  0  0  0  0  0  0  0  0  0  0  0
    0.0000    2.4253    0.0000 N   0  0  0  0  0  0  0  0  0  0  0  0
    2.0988    1.2127    0.0000 O   0  0  0  0  0  0  0  0  0  0  0  0
    0.6996    3.6380    0.0000 C   0  0  0  0  0  0  0  0  0  0  0  0
    2.7984    2.4253    0.0000 C   0  0  0  0  0  0  0  0  0  0  0  0
    2.0988    3.6380    0.0000 C   0  0  0  0  0  0  0  0  0  0  0  0
    4.1977    2.4253    0.0000 C   0  0  0  0  0  0  0  0  0  0  0  0
    4.8973    1.2127    0.0000 O   0  0  0  0  0  0  0  0  0  0  0  0
    6.2965    1.2127    0.0000 C   0  0  0  0  0  0  0  0  0  0  0  0
    6.9961    2.4253    0.0000 C   0  0  0  0  0  0  0  0  0  0  0  0
    6.9961    0.0000    0.0000 C   0  0  0  0  0  0  0  0  0  0  0  0
    8.3953    2.4253    0.0000 C   0  0  0  0  0  0  0  0  0  0  0  0
    8.3953    0.0000    0.0000 C   0  0  0  0  0  0  0  0  0  0  0  0
    9.0949    1.2127    0.0000 C   0  0  0  0  0  0  0  0  0  0  0  0
  1  2  2  0  0  0  0 
  2  3  1  0  0  0  0 
  2  4  1  0  0  0  0 
  3  5  1  0  0  0  0 
  6  4  1  0  0  0  0 
  5  7  1  0  0  0  0 
  7  6  1  0  0  0  0 
  6  8  1  0  0  0  0 
  8  9  1  0  0  0  0 
  9 10  1  0  0  0  0 
 10 11  2  0  0  0  0 
 10 12  1  0  0  0  0 
 11 13  1  0  0  0  0 
 14 12  2  0  0  0  0 
 13 15  2  0  0  0  0 
 15 14  1  0  0  0  0 
M  END
> <Name>
2H-1,3-Oxazine-2-thione, 3,4,5,6-tetrahydro-6-phenoxymethyl-

> <Source>
IndexNet2DMolFile

> <Tox>
2.006

> <CAS>
39754-64-8

$$$$

  CDK

 21 25  0  0  0  0  0  0  0  0999 V2000
    1.0931    0.5005   -2.0530 C   0  0  0  0  0  0  0  0  0  0  0  0
   -0.2111    0.0459   -2.7235 C   0  0  0  0  0  0  0  0  0  0  0  0
    1.9768    1.2410   -3.1040 C   0  0  0  0  0  0  0  0  0  0  0  0
    0.8419    1.9050   -1.4244 C   0  0  0  0  0  0  0  0  0  0  0  0
    1.8876   -0.6902   -1.0106 Cl  0  0  0  0  0  0  0  0  0  0  0  0
   -0.4649    1.3874   -3.4201 C   0  0  0  0  0  0  0  0  0  0  0  0
    0.0022   -1.2919   -3.8586 Cl  0  0  0  0  0  0  0  0  0  0  0  0
   -1.4749   -0.3953   -1.5689 Cl  0  0  0  0  0  0  0  0  0  0  0  0
    2.1717    2.3930   -2.0648 C   0  0  0  0  0  0  0  0  0  0  0  0
    0.8784    1.8453   -4.0822 C   0  0  0  0  0  0  0  0  0  0  0  0
    3.4087    0.4479   -3.7734 Cl  0  0  0  0  0  0  0  0  0  0  0  0
   -0.2419    2.5347   -2.3872 C   0  0  0  0  0  0  0  0  0  0  0  0
   -1.9421    1.4878   -4.3961 Cl  0  0  0  0  0  0  0  0  0  0  0  0
    1.9169    3.7304   -2.7773 C   0  0  0  0  0  0  0  0  0  0  0  0
    3.5732    2.3297   -0.9842 Cl  0  0  0  0  0  0  0  0  0  0  0  0
    0.6298    3.2577   -3.4640 C   0  0  0  0  0  0  0  0  0  0  0  0
    1.0938    1.6559   -5.8275 Cl  0  0  0  0  0  0  0  0  0  0  0  0
   -1.5947    3.3798   -1.6295 Cl  0  0  0  0  0  0  0  0  0  0  0  0
    3.1971    4.1754   -3.9107 Cl  0  0  0  0  0  0  0  0  0  0  0  0
    1.6574    5.0911   -1.6791 Cl  0  0  0  0  0  0  0  0  0  0  0  0
   -0.1884    4.4408   -4.5019 Cl  0  0  0  0  0  0  0  0  0  0  0  0
  1  2  1  0  0  0  0 
  1  3  1  0  0  0  0 
  1  4  1  0  0  0  0 
  1  5  1  0  0  0  0 
  2  6  1  0  0  0  0 
  2  7  1  0  0  0  0 
  2  8  1  0  0  0  0 
  9  3  1  0  0  0  0 
 10  3  1  0  0  0  0 
  3 11  1  0  0  0  0 
  9  4  1  0  0  0  0 
 12  4  1  0  0  0  0 
  6 10  1  0  0  0  0 
  6 12  1  0  0  0  0 
  6 13  1  0  0  0  0 
 14  9  1  0  0  0  0 
  9 15  1  0  0  0  0 
 10 16  1  0  0  0  0 
 10 17  1  0  0  0  0 
 16 12  1  0  0  0  0 
 12 18  1  0  0  0  0 
 16 14  1  0  0  0  0 
 14 19  1  0  0  0  0 
 14 20  1  0  0  0  0 
 16 21  1  0  0  0  0 
M  END
> <Name>
1,3,4-Metheno-1H-cyclobuta(cd)pentalene, 1,1a,2,2,3,3a,4,5,5,5a,5-undecachlorooctahydro-

> <Source>
Other

> <Tox>
3.407

> <CAS>
39801-14-4

$$$$

  CDK

 13 13  0  0  0  0  0  0  0  0999 V2000
    2.0968    1.1184   -0.0006 C   0  0  0  0  0  0  0  0  0  0  0  0
    0.9752    0.1336   -0.0004 C   0  0  0  0  0  0  0  0  0  0  0  0
    1.9384    2.3392   -0.0001 O   0  0  0  0  0  0  0  0  0  0  0  0
    3.4113    0.6657   -0.0014 N   0  0  0  0  0  0  0  0  0  0  0  0
    1.1448   -1.2645    0.0006 C   0  0  0  0  0  0  0  0  0  0  0  0
   -0.3284    0.6381   -0.0010 C   0  0  0  0  0  0  0  0  0  0  0  0
    0.0338   -2.1213    0.0013 C   0  0  0  0  0  0  0  0  0  0  0  0
    2.4199   -1.7594    0.0010 O   0  0  0  0  0  0  0  0  0  0  0  0
   -1.4401   -0.2046   -0.0001 C   0  0  0  0  0  0  0  0  0  0  0  0
   -1.2460   -1.5903    0.0010 C   0  0  0  0  0  0  0  0  0  0  0  0
   -2.8310    0.3403   -0.0003 C   0  0  0  0  0  0  0  0  0  0  0  0
   -3.7974   -0.4032   -0.0040 O   0  0  0  0  0  0  0  0  0  0  0  0
   -3.0103    1.8352    0.0040 C   0  0  0  0  0  0  0  0  0  0  0  0
  1  2  1  0  0  0  0 
  1  3  2  0  0  0  0 
  1  4  1  0  0  0  0 
  2  5  1  0  0  0  0 
  2  6  2  0  0  0  0 
  5  7  2  0  0  0  0 
  5  8  1  0  0  0  0 
  9  6  1  0  0  0  0 
  7 10  1  0  0  0  0 
 10  9  2  0  0  0  0 
  9 11  1  0  0  0  0 
 11 12  2  0  0  0  0 
 11 13  1  0  0  0  0 
M  END
> <Name>
Benzamide, 5-acetyl-2-hydroxy-

> <Source>
DougDB3DMolFile

> <Tox>
2.023

> <CAS>
40187-51-7

$$$$

  CDK

  8  8  0  0  0  0  0  0  0  0999 V2000
    0.6656   -2.3042    0.0000 C   0  0  0  0  0  0  0  0  0  0  0  0
    0.0000   -1.1544    0.0000 C   0  0  0  0  0  0  0  0  0  0  0  0
    1.9969   -2.3042    0.0000 O   0  0  0  0  0  0  0  0  0  0  0  0
    0.6656   -0.0000    0.0000 C   0  0  0  0  0  0  0  0  0  0  0  0
    2.6579   -1.1544    0.0000 N   0  0  0  0  0  0  0  0  0  0  0  0
    1.9969   -0.0000    0.0000 C   0  0  0  0  0  0  0  0  0  0  0  0
    3.9892   -1.1544    0.0000 N   0  0  0  0  0  0  0  0  0  0  0  0
    4.6549   -2.3042    0.0000 O   0  0  0  0  0  0  0  0  0  0  0  0
  1  2  1  0  0  0  0 
  1  3  1  0  0  0  0 
  2  4  1  0  0  0  0 
  5  3  1  0  0  0  0 
  4  6  1  0  0  0  0 
  6  5  1  0  0  0  0 
  5  7  1  0  0  0  0 
  7  8  2  0  0  0  0 
M  END
> <Name>
2H-1,2-Oxazine, tetrahydro-2-nitroso-

> <Source>
DSSTox2DMolFile

> <Tox>
2.146

> <CAS>
40548-68-3

$$$$

  CDK

 16 16  0  0  0  0  0  0  0  0999 V2000
   -0.8511   -1.7208    0.2273 S   0  0  0  0  0  0  0  0  0  0  0  0
   -2.4933   -1.3897   -1.0458 P   0  0  0  0  0  0  0  0  0  0  0  0
   -1.4016   -1.1860    1.8597 C   0  0  0  0  0  0  0  0  0  0  0  0
   -2.8171    0.2022   -1.1147 O   0  0  0  0  0  0  0  0  0  0  0  0
   -2.0578   -1.7587   -2.5629 O   0  0  0  0  0  0  0  0  0  0  0  0
   -3.6733   -2.1971   -0.5689 O   0  0  0  0  0  0  0  0  0  0  0  0
   -0.2909   -1.3758    2.8867 C   0  0  0  0  0  0  0  0  0  0  0  0
   -1.8200    1.1136   -1.5429 C   0  0  0  0  0  0  0  0  0  0  0  0
   -2.8517   -1.6396   -3.6719 C   0  0  0  0  0  0  0  0  0  0  0  0
   -0.7400   -0.9247    4.2689 C   0  0  0  0  0  0  0  0  0  0  0  0
   -2.3878    2.5166   -1.5108 C   0  0  0  0  0  0  0  0  0  0  0  0
   -4.1529   -1.1661   -3.5407 C   0  0  0  0  0  0  0  0  0  0  0  0
   -2.3500   -1.9938   -4.9198 C   0  0  0  0  0  0  0  0  0  0  0  0
   -4.9619   -1.0455   -4.6706 C   0  0  0  0  0  0  0  0  0  0  0  0
   -3.1591   -1.8731   -6.0497 C   0  0  0  0  0  0  0  0  0  0  0  0
   -4.4650   -1.3989   -5.9250 C   0  0  0  0  0  0  0  0  0  0  0  0
  1  2  1  0  0  0  0 
  1  3  1  0  0  0  0 
  2  4  1  0  0  0  0 
  2  5  1  0  0  0  0 
  2  6  2  0  0  0  0 
  3  7  1  0  0  0  0 
  4  8  1  0  0  0  0 
  5  9  1  0  0  0  0 
  7 10  1  0  0  0  0 
  8 11  1  0  0  0  0 
  9 12  2  0  0  0  0 
  9 13  1  0  0  0  0 
 12 14  1  0  0  0  0 
 13 15  2  0  0  0  0 
 14 16  2  0  0  0  0 
 15 16  1  0  0  0  0 
M  END
> <Name>
Phosphorothioic acid, O-ethyl O-phenyl S-propyl ester

> <Source>
Chemidplus3DMolFile

> <Tox>
2.946

> <CAS>
40626-35-5

$$$$

  CDK

 11 11  0  0  0  0  0  0  0  0999 V2000
    1.0153   -2.1493    0.0000 C   0  0  0  0  0  0  0  0  0  0  0  0
    0.3008   -1.7368    0.0000 N   0  0  0  0  0  0  0  0  0  0  0  0
    0.3008   -0.9118    0.0000 N   0  0  0  0  0  0  0  0  0  0  0  0
   -0.4136   -0.4993    0.0000 N   0  0  0  0  0  0  0  0  0  0  0  0
   -0.4136    0.3257    0.0000 C   0  0  0  0  0  0  0  0  0  0  0  0
    0.3008    0.7382    0.0000 C   0  0  0  0  0  0  0  0  0  0  0  0
   -1.1281    0.7382    0.0000 C   0  0  0  0  0  0  0  0  0  0  0  0
    0.3008    1.5632    0.0000 C   0  0  0  0  0  0  0  0  0  0  0  0
   -1.1281    1.5632    0.0000 C   0  0  0  0  0  0  0  0  0  0  0  0
   -0.4136    1.9757    0.0000 C   0  0  0  0  0  0  0  0  0  0  0  0
   -0.4136    2.8007    0.0000 Br  0  0  0  0  0  0  0  0  0  0  0  0
  1  2  1  0  0  0  0 
  3  2  1  0  0  0  0 
  3  4  2  0  0  0  0 
  4  5  1  0  0  0  0 
  5  6  1  0  0  0  0 
  5  7  2  0  0  0  0 
  6  8  2  0  0  0  0 
  9  7  1  0  0  0  0 
  8 10  1  0  0  0  0 
 10  9  2  0  0  0  0 
 10 11  1  0  0  0  0 
M  END
> <Name>
Triazene, 1-(p-bromophenyl)-3-methyl-

> <Source>
Smiles

> <Tox>
2.662

> <CAS>
40643-36-5

$$$$

  CDK

 13 13  0  0  0  0  0  0  0  0999 V2000
    8.4000    2.4249    0.0000 N   0  0  0  0  0  0  0  0  0  0  0  0
    7.0000    2.4249    0.0000 N   0  0  0  0  0  0  0  0  0  0  0  0
    9.1000    3.6373    0.0000 C   0  0  0  0  0  0  0  0  0  0  0  0
    6.3000    1.2124    0.0000 N   0  0  0  0  0  0  0  0  0  0  0  0
    4.9000    1.2124    0.0000 C   0  0  0  0  0  0  0  0  0  0  0  0
    4.2000    0.0000    0.0000 C   0  0  0  0  0  0  0  0  0  0  0  0
    4.2000    2.4249    0.0000 C   0  0  0  0  0  0  0  0  0  0  0  0
    2.8000    0.0000    0.0000 C   0  0  0  0  0  0  0  0  0  0  0  0
    2.8000    2.4249    0.0000 C   0  0  0  0  0  0  0  0  0  0  0  0
    2.1000    1.2124    0.0000 C   0  0  0  0  0  0  0  0  0  0  0  0
    0.7000    1.2124    0.0000 N   0  0  0  0  0  0  0  0  0  0  0  0
    0.0000    0.0000    0.0000 O   0  0  0  0  0  0  0  0  0  0  0  0
    0.0000    2.4249    0.0000 O   0  0  0  0  0  0  0  0  0  0  0  0
  1  2  2  0  0  0  0 
  1  3  1  0  0  0  0 
  2  4  1  0  0  0  0 
  4  5  1  0  0  0  0 
  5  6  1  0  0  0  0 
  5  7  2  0  0  0  0 
  6  8  2  0  0  0  0 
  9  7  1  0  0  0  0 
  8 10  1  0  0  0  0 
 10  9  2  0  0  0  0 
 10 11  1  0  0  0  0 
 11 12  2  0  0  0  0 
 11 13  1  0  0  0  0 
M  CHG  1  11   1
M  CHG  1  13  -1
M  END
> <Name>
1-Triazene, 1-methyl-3-(4-nitrophenyl)- (9CI)

> <Source>
Name2DMolFile

> <Tox>
2.586

> <CAS>
40643-39-8

$$$$

  CDK

 17 18  0  0  0  0  0  0  0  0999 V2000
    0.0000    2.7984    0.0000 C   0  0  0  0  0  0  0  0  0  0  0  0
    1.3992    2.7984    0.0000 C   0  0  0  0  0  0  0  0  0  0  0  0
    0.6996    4.0111    0.0000 O   0  0  0  0  0  0  0  0  0  0  0  0
    2.6119    2.0988    0.0000 C   0  0  0  0  0  0  0  0  0  0  0  0
    3.8245    2.7984    0.0000 O   0  0  0  0  0  0  0  0  0  0  0  0
    5.0372    2.0988    0.0000 C   0  0  0  0  0  0  0  0  0  0  0  0
    5.0372    0.6996    0.0000 C   0  0  0  0  0  0  0  0  0  0  0  0
    6.2499    2.7984    0.0000 C   0  0  0  0  0  0  0  0  0  0  0  0
    6.2499    0.0000    0.0000 C   0  0  0  0  0  0  0  0  0  0  0  0
    3.8245    0.0000    0.0000 C   0  0  0  0  0  0  0  0  0  0  0  0
    7.4625    2.0988    0.0000 C   0  0  0  0  0  0  0  0  0  0  0  0
    6.2499    4.1977    0.0000 C   0  0  0  0  0  0  0  0  0  0  0  0
    7.4625    0.6996    0.0000 C   0  0  0  0  0  0  0  0  0  0  0  0
    2.6119    0.6996    0.0000 C   0  0  0  0  0  0  0  0  0  0  0  0
    5.0372    4.8973    0.0000 C   0  0  0  0  0  0  0  0  0  0  0  0
    1.3992    0.0000    0.0000 C   0  0  0  0  0  0  0  0  0  0  0  0
    5.0372    6.2965    0.0000 C   0  0  0  0  0  0  0  0  0  0  0  0
  1  2  1  0  0  0  0 
  1  3  1  0  0  0  0 
  2  3  1  0  0  0  0 
  2  4  1  0  0  0  0 
  4  5  1  0  0  0  0 
  5  6  1  0  0  0  0 
  6  7  2  0  0  0  0 
  6  8  1  0  0  0  0 
  7  9  1  0  0  0  0 
  7 10  1  0  0  0  0 
 11  8  2  0  0  0  0 
  8 12  1  0  0  0  0 
  9 13  2  0  0  0  0 
 10 14  1  0  0  0  0 
 13 11  1  0  0  0  0 
 12 15  1  0  0  0  0 
 14 16  2  0  0  0  0 
 15 17  2  0  0  0  0 
M  END
> <Name>
Ether, 2,6-diallylphenyl 2,3-epoxypropyl

> <Source>
IndexNet2DMolFile

> <Tox>
1.753

> <CAS>
40693-04-7

$$$$

  CDK

 18 19  0  0  0  0  0  0  0  0999 V2000
    1.9901   -2.0391    0.0798 Cl  0  0  0  0  0  0  0  0  0  0  0  0
    2.1241   -0.3269   -0.0197 C   0  0  0  0  0  0  0  0  0  0  0  0
    3.3799    0.2749   -0.0758 C   0  0  0  0  0  0  0  0  0  0  0  0
    0.9820    0.4613   -0.0449 C   0  0  0  0  0  0  0  0  0  0  0  0
    3.5200    1.6759   -0.1615 C   0  0  0  0  0  0  0  0  0  0  0  0
    1.0985    1.8486   -0.1228 C   0  0  0  0  0  0  0  0  0  0  0  0
    4.9212    2.2426   -0.2373 C   0  0  0  0  0  0  0  0  0  0  0  0
    2.3593    2.4696   -0.1836 C   0  0  0  0  0  0  0  0  0  0  0  0
    5.6156    2.0451   -1.9266 S   0  0  0  0  0  0  0  0  0  0  0  0
    5.0219    3.7015    0.2220 C   0  0  0  0  0  0  0  0  0  0  0  0
    2.3495    4.2581   -0.2376 S   0  0  0  0  0  0  0  0  0  0  0  0
    7.5539    2.8936   -1.8081 P   0  0  0  0  0  0  0  0  0  0  0  0
    4.0969    4.6440   -0.5317 C   0  0  0  0  0  0  0  0  0  0  0  0
    8.7394    2.2691   -0.3748 S   0  0  0  0  0  0  0  0  0  0  0  0
    8.2412    2.7545   -3.2855 O   0  0  0  0  0  0  0  0  0  0  0  0
    7.3774    4.5191   -1.7933 O   0  0  0  0  0  0  0  0  0  0  0  0
    8.6041    1.4801   -3.7902 C   0  0  0  0  0  0  0  0  0  0  0  0
    8.5102    5.3646   -1.9069 C   0  0  0  0  0  0  0  0  0  0  0  0
  1  2  1  0  0  0  0 
  3  2  2  0  0  0  0 
  2  4  1  0  0  0  0 
  5  3  1  0  0  0  0 
  6  4  2  0  0  0  0 
  7  5  1  0  0  0  0 
  5  8  2  0  0  0  0 
  8  6  1  0  0  0  0 
  9  7  1  0  0  0  0 
  7 10  1  0  0  0  0 
 11  8  1  0  0  0  0 
  9 12  1  0  0  0  0 
 10 13  1  0  0  0  0 
 11 13  1  0  0  0  0 
 14 12  2  0  0  0  0 
 12 15  1  0  0  0  0 
 12 16  1  0  0  0  0 
 15 17  1  0  0  0  0 
 16 18  1  0  0  0  0 
M  END
> <Name>
Phosphorodithioic acid, S-(6-chloro-3,4-dihydro-2H-1-benzothiopyran-4-yl) O,O-dimethyl ester

> <Source>
Chemidplus3DMolFile

> <Tox>
3.232

> <CAS>
41219-30-1

$$$$

  CDK

  9  9  0  0  0  0  0  0  0  0999 V2000
    0.7962    1.2939    0.0000 C   0  0  0  0  0  0  0  0  0  0  0  0
    0.0000    0.5474    0.0000 C   0  0  0  0  0  0  0  0  0  0  0  0
    1.6920    0.9455    0.0000 C   0  0  0  0  0  0  0  0  0  0  0  0
    2.5380    1.4930    0.0000 O   0  0  0  0  0  0  0  0  0  0  0  0
    2.0404    0.0000    0.0000 C   0  0  0  0  0  0  0  0  0  0  0  0
    3.3343    0.9455    0.0000 C   0  0  0  0  0  0  0  0  0  0  0  0
    2.9859    0.0000    0.0000 C   0  0  0  0  0  0  0  0  0  0  0  0
    4.2798    1.2441    0.0000 C   0  0  0  0  0  0  0  0  0  0  0  0
    5.0263    0.5474    0.0000 C   0  0  0  0  0  0  0  0  0  0  0  0
  1  2  1  0  0  0  0 
  1  3  1  0  0  0  0 
  3  4  1  0  0  0  0 
  5  3  1  0  0  0  0 
  4  6  1  0  0  0  0 
  7  5  1  0  0  0  0 
  6  7  1  0  0  0  0 
  6  8  1  0  0  0  0 
  8  9  1  0  0  0  0 
M  END
> <Name>
Furan, 2,5-diethyltetrahydro-

> <Source>
NIST2DMolFile

> <Tox>
1.576

> <CAS>
41239-48-9

$$$$

  CDK

 15 16  0  0  0  0  0  0  0  0999 V2000
    2.5774    1.5161    0.0000 C   0  0  0  0  0  0  0  0  0  0  0  0
    2.5774    2.4764    0.0000 C   0  0  0  0  0  0  0  0  0  0  0  0
    3.3860    1.0108    0.0000 N   0  0  0  0  0  0  0  0  0  0  0  0
    1.7183    1.0108    0.0000 O   0  0  0  0  0  0  0  0  0  0  0  0
    3.3860    2.9817    0.0000 N   0  0  0  0  0  0  0  0  0  0  0  0
    1.7183    2.9817    0.0000 C   0  0  0  0  0  0  0  0  0  0  0  0
    4.2957    1.5667    0.0000 C   0  0  0  0  0  0  0  0  0  0  0  0
    3.3860    0.0000    0.0000 N   0  0  0  0  0  0  0  0  0  0  0  0
    4.2957    2.5269    0.0000 N   0  0  0  0  0  0  0  0  0  0  0  0
    1.7183    3.9925    0.0000 C   0  0  0  0  0  0  0  0  0  0  0  0
    0.8591    2.4764    0.0000 C   0  0  0  0  0  0  0  0  0  0  0  0
    5.1549    1.0108    0.0000 C   0  0  0  0  0  0  0  0  0  0  0  0
    0.8591    4.5484    0.0000 C   0  0  0  0  0  0  0  0  0  0  0  0
    0.0000    2.9817    0.0000 C   0  0  0  0  0  0  0  0  0  0  0  0
    0.0000    3.9925    0.0000 C   0  0  0  0  0  0  0  0  0  0  0  0
  1  2  1  0  0  0  0 
  3  1  1  0  0  0  0 
  1  4  2  0  0  0  0 
  2  5  2  0  0  0  0 
  2  6  1  0  0  0  0 
  7  3  1  0  0  0  0 
  3  8  1  0  0  0  0 
  5  9  1  0  0  0  0 
 10  6  2  0  0  0  0 
  6 11  1  0  0  0  0 
  9  7  2  0  0  0  0 
  7 12  1  0  0  0  0 
 13 10  1  0  0  0  0 
 11 14  2  0  0  0  0 
 15 13  2  0  0  0  0 
 14 15  1  0  0  0  0 
M  END
> <Name>
as-Triazin-5(4H)-one, 4-amino-3-methyl-6-phenyl-

> <Source>
NIST2DMolFile

> <Tox>
2.145

> <CAS>
41394-05-2

$$$$

  CDK

 21 21  0  0  0  0  0  0  0  0999 V2000
    5.2347    3.5068    0.0000 N   0  0  0  0  0  0  0  0  0  0  0  0
    5.2347    4.5232    0.0000 C   0  0  0  0  0  0  0  0  0  0  0  0
    4.3707    3.0494    0.0000 C   0  0  0  0  0  0  0  0  0  0  0  0
    4.3707    5.0314    0.0000 N   0  0  0  0  0  0  0  0  0  0  0  0
    6.0987    5.0314    0.0000 N   0  0  0  0  0  0  0  0  0  0  0  0
    3.5068    3.5068    0.0000 C   0  0  0  0  0  0  0  0  0  0  0  0
    4.3707    2.0329    0.0000 O   0  0  0  0  0  0  0  0  0  0  0  0
    3.5068    4.5232    0.0000 C   0  0  0  0  0  0  0  0  0  0  0  0
    7.0135    4.5232    0.0000 C   0  0  0  0  0  0  0  0  0  0  0  0
    2.6428    3.0494    0.0000 C   0  0  0  0  0  0  0  0  0  0  0  0
    5.2347    1.5247    0.0000 S   0  0  0  0  0  0  0  0  0  0  0  0
    2.6428    4.9806    0.0000 C   0  0  0  0  0  0  0  0  0  0  0  0
    7.8267    5.0314    0.0000 C   0  0  0  0  0  0  0  0  0  0  0  0
    1.7280    3.5068    0.0000 C   0  0  0  0  0  0  0  0  0  0  0  0
    4.7265    0.6607    0.0000 O   0  0  0  0  0  0  0  0  0  0  0  0
    5.7430    2.3887    0.0000 O   0  0  0  0  0  0  0  0  0  0  0  0
    6.0987    1.0165    0.0000 N   0  0  0  0  0  0  0  0  0  0  0  0
    0.8640    3.1002    0.0000 C   0  0  0  0  0  0  0  0  0  0  0  0
    7.0135    1.5247    0.0000 C   0  0  0  0  0  0  0  0  0  0  0  0
    6.0987    0.0000    0.0000 C   0  0  0  0  0  0  0  0  0  0  0  0
    0.0000    3.5576    0.0000 C   0  0  0  0  0  0  0  0  0  0  0  0
  2  1  2  0  0  0  0 
  1  3  1  0  0  0  0 
  4  2  1  0  0  0  0 
  2  5  1  0  0  0  0 
  3  6  2  0  0  0  0 
  3  7  1  0  0  0  0 
  8  4  2  0  0  0  0 
  5  9  1  0  0  0  0 
  6  8  1  0  0  0  0 
  6 10  1  0  0  0  0 
  7 11  1  0  0  0  0 
  8 12  1  0  0  0  0 
  9 13  1  0  0  0  0 
 10 14  1  0  0  0  0 
 11 15  2  0  0  0  0 
 11 16  2  0  0  0  0 
 11 17  1  0  0  0  0 
 14 18  1  0  0  0  0 
 17 19  1  0  0  0  0 
 17 20  1  0  0  0  0 
 18 21  1  0  0  0  0 
M  END
> <Name>
Sulfamic acid, N,N-dimethyl-, ester with 5-butyl-2-ethylamino-6-methylpyrimidin-4-ol

> <Source>
NIST2DMolFile

> <Tox>
1.898

> <CAS>
41483-43-6

$$$$

  CDK

 16 17  0  0  0  0  0  0  0  0999 V2000
    0.0000    0.0000    0.0000 O   0  0  0  0  0  0  0  0  0  0  0  0
    0.3400   -1.1600    0.0600 C   0  0  0  0  0  0  0  0  0  0  0  0
    1.5800   -1.6800    0.6200 C   0  0  0  0  0  0  0  0  0  0  0  0
   -0.4200   -2.2600   -0.4200 N   0  0  0  0  0  0  0  0  0  0  0  0
    1.5800   -3.0600    0.4800 C   0  0  0  0  0  0  0  0  0  0  0  0
    2.6600   -1.0000    1.2000 C   0  0  0  0  0  0  0  0  0  0  0  0
    0.3200   -3.4600   -0.1800 C   0  0  0  0  0  0  0  0  0  0  0  0
   -1.7200   -2.2000   -1.0600 C   0  0  0  0  0  0  0  0  0  0  0  0
    2.6400   -3.8600    0.9000 C   0  0  0  0  0  0  0  0  0  0  0  0
    3.7400   -1.7800    1.6600 C   0  0  0  0  0  0  0  0  0  0  0  0
   -0.0400   -4.5800   -0.4800 O   0  0  0  0  0  0  0  0  0  0  0  0
   -2.8600   -2.1400   -0.0400 C   0  0  0  0  0  0  0  0  0  0  0  0
    3.7400   -3.2000    1.5200 C   0  0  0  0  0  0  0  0  0  0  0  0
   -3.1000   -3.4600    0.6600 C   0  0  0  0  0  0  0  0  0  0  0  0
   -2.9200   -3.3800    2.1800 C   0  0  0  0  0  0  0  0  0  0  0  0
   -4.4200   -4.1200    0.2600 C   0  0  0  0  0  0  0  0  0  0  0  0
  1  2  2  0  0  0  0 
  2  3  1  0  0  0  0 
  2  4  1  0  0  0  0 
  3  5  2  0  0  0  0 
  3  6  1  0  0  0  0 
  4  7  1  0  0  0  0 
  4  8  1  0  0  0  0 
  5  9  1  0  0  0  0 
  5  7  1  0  0  0  0 
 10  6  2  0  0  0  0 
  7 11  2  0  0  0  0 
 12  8  1  0  0  0  0 
  9 13  2  0  0  0  0 
 13 10  1  0  0  0  0 
 14 12  1  0  0  0  0 
 15 14  1  0  0  0  0 
 14 16  1  0  0  0  0 
M  END
> <Name>
1H-Isoindole-1,3(2H)-dione, 2-(3-methylbutyl)-

> <Source>
NIH3DMolFile

> <Tox>
1.793

> <CAS>
41764-14-1

$$$$

  CDK

 18 19  0  0  0  0  0  0  0  0999 V2000
    2.8255   -0.1548    5.8668 N   0  0  0  0  0  0  0  0  0  0  0  0
    2.7722   -0.2360    4.5027 N   0  0  0  0  0  0  0  0  0  0  0  0
    1.9095   -0.8192    6.6415 N   0  0  0  0  0  0  0  0  0  0  0  0
    3.8878    0.6529    6.4324 C   0  0  0  0  0  0  0  0  0  0  0  0
    1.8337   -0.9473    4.0779 N   0  0  0  0  0  0  0  0  0  0  0  0
    2.0777   -0.6623    7.8687 N   0  0  0  0  0  0  0  0  0  0  0  0
    1.8513   -0.9774    2.6800 C   0  0  0  0  0  0  0  0  0  0  0  0
    1.0968   -1.3778    8.5754 C   0  0  0  0  0  0  0  0  0  0  0  0
    2.5811   -1.9614    2.0129 C   0  0  0  0  0  0  0  0  0  0  0  0
    1.1399   -0.0232    1.9524 C   0  0  0  0  0  0  0  0  0  0  0  0
    1.3378   -2.6971    8.9474 C   0  0  0  0  0  0  0  0  0  0  0  0
   -0.1093   -0.7629    8.8983 C   0  0  0  0  0  0  0  0  0  0  0  0
    2.5996   -1.9913    0.6185 C   0  0  0  0  0  0  0  0  0  0  0  0
    1.1583   -0.0532    0.5579 C   0  0  0  0  0  0  0  0  0  0  0  0
    0.3638   -3.4081    9.6484 C   0  0  0  0  0  0  0  0  0  0  0  0
   -1.0832   -1.4740    9.5994 C   0  0  0  0  0  0  0  0  0  0  0  0
    1.8882   -1.0373   -0.1090 C   0  0  0  0  0  0  0  0  0  0  0  0
   -0.8466   -2.7965    9.9745 C   0  0  0  0  0  0  0  0  0  0  0  0
  1  2  1  0  0  0  0 
  1  3  1  0  0  0  0 
  1  4  1  0  0  0  0 
  5  2  2  0  0  0  0 
  6  3  2  0  0  0  0 
  5  7  1  0  0  0  0 
  6  8  1  0  0  0  0 
  7  9  2  0  0  0  0 
  7 10  1  0  0  0  0 
  8 11  2  0  0  0  0 
  8 12  1  0  0  0  0 
  9 13  1  0  0  0  0 
 10 14  2  0  0  0  0 
 11 15  1  0  0  0  0 
 12 16  2  0  0  0  0 
 13 17  2  0  0  0  0 
 14 17  1  0  0  0  0 
 15 18  2  0  0  0  0 
 16 18  1  0  0  0  0 
M  END
> <Name>
1,4-Pentazadiene, 1,5-diphenyl-3-methyl-

> <Source>
Chemidplus3DMolFile

> <Tox>
3.053

> <CAS>
41798-82-7

$$$$

  CDK

 25 26  0  0  0  0  0  0  0  0999 V2000
   13.8087   -3.9799    0.0000 C   0  0  0  0  0  0  0  0  0  0  0  0
   14.9528   -3.3031    0.0000 C   0  0  0  0  0  0  0  0  0  0  0  0
   12.6486   -4.6405    0.0000 O   0  0  0  0  0  0  0  0  0  0  0  0
   13.1320   -2.8198    0.0000 C   0  0  0  0  0  0  0  0  0  0  0  0
   14.4694   -5.1239    0.0000 C   0  0  0  0  0  0  0  0  0  0  0  0
   16.1129   -3.9799    0.0000 O   0  0  0  0  0  0  0  0  0  0  0  0
   14.9528   -1.9819    0.0000 O   0  0  0  0  0  0  0  0  0  0  0  0
   11.5046   -3.9799    0.0000 C   0  0  0  0  0  0  0  0  0  0  0  0
   10.3445   -4.6405    0.0000 C   0  0  0  0  0  0  0  0  0  0  0  0
   11.5046   -2.6586    0.0000 C   0  0  0  0  0  0  0  0  0  0  0  0
    9.2005   -3.9799    0.0000 C   0  0  0  0  0  0  0  0  0  0  0  0
   10.3445   -1.9819    0.0000 C   0  0  0  0  0  0  0  0  0  0  0  0
    9.2005   -2.6586    0.0000 C   0  0  0  0  0  0  0  0  0  0  0  0
    8.0403   -1.9819    0.0000 C   0  0  0  0  0  0  0  0  0  0  0  0
    6.9124   -2.6586    0.0000 C   0  0  0  0  0  0  0  0  0  0  0  0
    5.7523   -1.9819    0.0000 N   0  0  0  0  0  0  0  0  0  0  0  0
    4.6083   -2.6586    0.0000 C   0  0  0  0  0  0  0  0  0  0  0  0
    3.4482   -1.9819    0.0000 C   0  0  0  0  0  0  0  0  0  0  0  0
    4.6083   -3.9799    0.0000 O   0  0  0  0  0  0  0  0  0  0  0  0
    2.3041   -2.6586    0.0000 C   0  0  0  0  0  0  0  0  0  0  0  0
    3.4482   -0.6445    0.0000 C   0  0  0  0  0  0  0  0  0  0  0  0
    1.1440   -1.9819    0.0000 C   0  0  0  0  0  0  0  0  0  0  0  0
    2.3041   -0.0000    0.0000 C   0  0  0  0  0  0  0  0  0  0  0  0
    1.1440   -0.6445    0.0000 C   0  0  0  0  0  0  0  0  0  0  0  0
    0.0000   -0.0000    0.0000 Cl  0  0  0  0  0  0  0  0  0  0  0  0
  1  2  1  0  0  0  0 
  1  3  1  0  0  0  0 
  1  4  1  0  0  0  0 
  1  5  1  0  0  0  0 
  2  6  2  0  0  0  0 
  2  7  1  0  0  0  0 
  3  8  1  0  0  0  0 
  8  9  2  0  0  0  0 
  8 10  1  0  0  0  0 
  9 11  1  0  0  0  0 
 10 12  2  0  0  0  0 
 13 11  2  0  0  0  0 
 13 12  1  0  0  0  0 
 13 14  1  0  0  0  0 
 15 14  1  0  0  0  0 
 16 15  1  0  0  0  0 
 17 16  1  0  0  0  0 
 17 18  1  0  0  0  0 
 17 19  2  0  0  0  0 
 18 20  1  0  0  0  0 
 18 21  2  0  0  0  0 
 20 22  2  0  0  0  0 
 21 23  1  0  0  0  0 
 24 22  1  0  0  0  0 
 24 23  2  0  0  0  0 
 24 25  1  0  0  0  0 
M  END
> <Name>
Propanoic acid, 2-(4-(2-((4-chlorobenzoyl)amino)ethyl)phenoxy)-2-methyl-

> <Source>
DSSTox2DMolFile

> <Tox>
2.524

> <CAS>
41859-67-0

$$$$

  CDK

 29 31  0  0  0  0  0  0  0  0999 V2000
    1.4172    5.9781   -1.0308 O   0  0  0  0  0  0  0  0  0  0  0  0
    1.8637    6.5203    0.1503 C   0  0  0  0  0  0  0  0  0  0  0  0
    0.3067    5.2004   -0.9005 C   0  0  0  0  0  0  0  0  0  0  0  0
    1.3678    6.3687    1.2601 O   0  0  0  0  0  0  0  0  0  0  0  0
    3.1060    7.3609   -0.1288 C   0  0  0  0  0  0  0  0  0  0  0  0
   -0.9934    5.5403   -1.0020 C   0  0  0  0  0  0  0  0  0  0  0  0
    0.4601    3.7809   -0.6438 C   0  0  0  0  0  0  0  0  0  0  0  0
    2.6985    8.7833   -0.5559 C   0  0  0  0  0  0  0  0  0  0  0  0
    4.0701    7.2880    1.0673 C   0  0  0  0  0  0  0  0  0  0  0  0
   -1.5823    6.8522   -1.2640 C   0  0  0  0  0  0  0  0  0  0  0  0
   -1.7719    4.2785   -0.8118 C   0  0  0  0  0  0  0  0  0  0  0  0
   -0.8039    3.2086   -0.5907 C   0  0  0  0  0  0  0  0  0  0  0  0
    1.5844    2.9939   -0.4657 C   0  0  0  0  0  0  0  0  0  0  0  0
    1.9556    9.5541    0.5386 C   0  0  0  0  0  0  0  0  0  0  0  0
    4.6124    5.8963    1.3663 C   0  0  0  0  0  0  0  0  0  0  0  0
   -1.9051    7.7148   -0.2051 C   0  0  0  0  0  0  0  0  0  0  0  0
   -1.8354    7.2720   -2.5791 C   0  0  0  0  0  0  0  0  0  0  0  0
   -2.9789    4.1499   -0.8230 O   0  0  0  0  0  0  0  0  0  0  0  0
   -1.0156    1.8630   -0.3628 C   0  0  0  0  0  0  0  0  0  0  0  0
    1.4039    1.6255   -0.2329 C   0  0  0  0  0  0  0  0  0  0  0  0
    1.6615   10.9899    0.1017 C   0  0  0  0  0  0  0  0  0  0  0  0
   -2.4675    8.9665   -0.4552 C   0  0  0  0  0  0  0  0  0  0  0  0
   -1.6559    7.3182    1.2152 C   0  0  0  0  0  0  0  0  0  0  0  0
   -2.3977    8.5238   -2.8292 C   0  0  0  0  0  0  0  0  0  0  0  0
   -1.5110    6.3928   -3.7446 C   0  0  0  0  0  0  0  0  0  0  0  0
    0.1143    1.0652   -0.1820 C   0  0  0  0  0  0  0  0  0  0  0  0
    0.9582   11.7730    1.1987 C   0  0  0  0  0  0  0  0  0  0  0  0
   -2.7138    9.3710   -1.7672 C   0  0  0  0  0  0  0  0  0  0  0  0
   -3.3146   10.7096   -2.0344 C   0  0  0  0  0  0  0  0  0  0  0  0
  1  2  1  0  0  0  0 
  1  3  1  0  0  0  0 
  4  2  2  0  0  0  0 
  5  2  1  0  0  0  0 
  6  3  2  0  0  0  0 
  3  7  1  0  0  0  0 
  5  8  1  0  0  0  0 
  5  9  1  0  0  0  0 
  6 10  1  0  0  0  0 
  6 11  1  0  0  0  0 
  7 12  1  0  0  0  0 
  7 13  2  0  0  0  0 
  8 14  1  0  0  0  0 
  9 15  1  0  0  0  0 
 10 16  2  0  0  0  0 
 10 17  1  0  0  0  0 
 18 11  2  0  0  0  0 
 12 11  1  0  0  0  0 
 12 19  2  0  0  0  0 
 13 20  1  0  0  0  0 
 14 21  1  0  0  0  0 
 16 22  1  0  0  0  0 
 16 23  1  0  0  0  0 
 17 24  2  0  0  0  0 
 17 25  1  0  0  0  0 
 19 26  1  0  0  0  0 
 20 26  2  0  0  0  0 
 21 27  1  0  0  0  0 
 22 28  2  0  0  0  0 
 24 28  1  0  0  0  0 
 28 29  1  0  0  0  0 
M  END
> <Name>
Hexanoic acid, 2-ethyl-, 1-oxo-2-(2,4,6-trimethylphenyl)-1H-inden-3-yl ester

> <Source>
Chemidplus3DMolFile

> <Tox>
4.388

> <CAS>
41905-80-0

$$$$

  CDK

 22 23  0  0  0  0  0  0  0  0999 V2000
    0.0000    0.0000    0.0000 O   0  0  0  0  0  0  0  0  0  0  0  0
    0.6800   -0.9000    0.4200 C   0  0  0  0  0  0  0  0  0  0  0  0
    0.0800   -2.1000    1.0600 C   0  0  0  0  0  0  0  0  0  0  0  0
    2.1800   -0.8200    0.3000 C   0  0  0  0  0  0  0  0  0  0  0  0
    0.8000   -2.8200    2.0200 C   0  0  0  0  0  0  0  0  0  0  0  0
   -1.2000   -2.5400    0.6800 C   0  0  0  0  0  0  0  0  0  0  0  0
    2.9400   -2.0000    0.1600 C   0  0  0  0  0  0  0  0  0  0  0  0
    2.8200    0.4200    0.3400 C   0  0  0  0  0  0  0  0  0  0  0  0
    0.2400   -3.9600    2.6200 C   0  0  0  0  0  0  0  0  0  0  0  0
   -1.7600   -3.6800    1.2800 C   0  0  0  0  0  0  0  0  0  0  0  0
    4.3400   -1.9400    0.0600 C   0  0  0  0  0  0  0  0  0  0  0  0
    4.2200    0.5000    0.2400 C   0  0  0  0  0  0  0  0  0  0  0  0
   -1.0400   -4.3800    2.2600 C   0  0  0  0  0  0  0  0  0  0  0  0
    4.9800   -0.6800    0.1000 C   0  0  0  0  0  0  0  0  0  0  0  0
   -1.5800   -5.4600    2.8200 O   0  0  0  0  0  0  0  0  0  0  0  0
    6.6800   -0.6000   -0.0200 Cl  0  0  0  0  0  0  0  0  0  0  0  0
   -0.8200   -6.6600    2.8200 C   0  0  0  0  0  0  0  0  0  0  0  0
   -0.0400   -6.4600    4.1000 C   0  0  0  0  0  0  0  0  0  0  0  0
   -1.7600   -7.8600    2.8600 C   0  0  0  0  0  0  0  0  0  0  0  0
    0.1000   -6.6800    1.5800 C   0  0  0  0  0  0  0  0  0  0  0  0
    0.9600   -7.1000    4.3000 O   0  0  0  0  0  0  0  0  0  0  0  0
   -0.5600   -5.5800    4.9200 O   0  0  0  0  0  0  0  0  0  0  0  0
  1  2  2  0  0  0  0 
  2  3  1  0  0  0  0 
  2  4  1  0  0  0  0 
  3  5  2  0  0  0  0 
  3  6  1  0  0  0  0 
  4  7  2  0  0  0  0 
  4  8  1  0  0  0  0 
  5  9  1  0  0  0  0 
 10  6  2  0  0  0  0 
  7 11  1  0  0  0  0 
 12  8  2  0  0  0  0 
  9 13  2  0  0  0  0 
 13 10  1  0  0  0  0 
 11 14  2  0  0  0  0 
 14 12  1  0  0  0  0 
 13 15  1  0  0  0  0 
 14 16  1  0  0  0  0 
 15 17  1  0  0  0  0 
 17 18  1  0  0  0  0 
 17 19  1  0  0  0  0 
 17 20  1  0  0  0  0 
 18 21  2  0  0  0  0 
 18 22  1  0  0  0  0 
M  END
> <Name>
Propanoic acid, 2-(4-(4-chlorobenzoyl)phenoxy)-2-methyl-

> <Source>
NIH3DMolFile

> <Tox>
2.409

> <CAS>
42017-89-0

$$$$

  CDK

 21 21  0  0  0  0  0  0  0  0999 V2000
   -0.6074    2.4194    0.3666 Br  0  0  0  0  0  0  0  0  0  0  0  0
    0.2812    1.8310   -1.1806 C   0  0  0  0  0  0  0  0  0  0  0  0
   -0.4878    2.4270   -2.7895 Br  0  0  0  0  0  0  0  0  0  0  0  0
    1.3804    1.0507   -1.1686 C   0  0  0  0  0  0  0  0  0  0  0  0
    1.9616    0.6021   -0.0309 O   0  0  0  0  0  0  0  0  0  0  0  0
    2.0745    0.5911   -2.3770 C   0  0  0  0  0  0  0  0  0  0  0  0
    3.5470    0.2986    0.0961 P   0  0  0  0  0  0  0  0  0  0  0  0
    1.7385   -0.6007   -3.0088 C   0  0  0  0  0  0  0  0  0  0  0  0
    3.0918    1.3965   -2.8776 C   0  0  0  0  0  0  0  0  0  0  0  0
    4.2185    1.7650   -0.0581 O   0  0  0  0  0  0  0  0  0  0  0  0
    3.7380   -0.0320    1.6707 O   0  0  0  0  0  0  0  0  0  0  0  0
    4.0738   -0.7463   -0.8458 O   0  0  0  0  0  0  0  0  0  0  0  0
    0.4813   -1.6322   -2.4207 Cl  0  0  0  0  0  0  0  0  0  0  0  0
    2.4282   -0.9927   -4.1560 C   0  0  0  0  0  0  0  0  0  0  0  0
    3.7815    1.0045   -4.0248 C   0  0  0  0  0  0  0  0  0  0  0  0
    5.6158    1.8914    0.1403 C   0  0  0  0  0  0  0  0  0  0  0  0
    3.2651    0.9087    2.6192 C   0  0  0  0  0  0  0  0  0  0  0  0
    3.4498   -0.1902   -4.6640 C   0  0  0  0  0  0  0  0  0  0  0  0
    6.0124    3.3394   -0.0542 C   0  0  0  0  0  0  0  0  0  0  0  0
    3.5506    0.3902    4.0125 C   0  0  0  0  0  0  0  0  0  0  0  0
    4.3031   -0.6734   -6.0783 Cl  0  0  0  0  0  0  0  0  0  0  0  0
  1  2  1  0  0  0  0 
  3  2  1  0  0  0  0 
  4  2  2  0  0  0  0 
  5  4  1  0  0  0  0 
  6  4  1  0  0  0  0 
  7  5  1  0  0  0  0 
  6  8  2  0  0  0  0 
  6  9  1  0  0  0  0 
  7 10  1  0  0  0  0 
  7 11  1  0  0  0  0 
  7 12  2  0  0  0  0 
 13  8  1  0  0  0  0 
  8 14  1  0  0  0  0 
  9 15  2  0  0  0  0 
 10 16  1  0  0  0  0 
 11 17  1  0  0  0  0 
 14 18  2  0  0  0  0 
 15 18  1  0  0  0  0 
 16 19  1  0  0  0  0 
 17 20  1  0  0  0  0 
 21 18  1  0  0  0  0 
M  END
> <Name>
Phosphoric acid, 2,2-dibromo-1-(2,4-dichlorophenyl)ethenyl diethyl ester

> <Source>
Chemidplus3DMolFile

> <Tox>
3.791

> <CAS>
42136-31-2

$$$$

  CDK

 22 23  0  0  0  0  0  0  0  0999 V2000
    8.0679   -2.0083    0.0000 C   0  0  0  0  0  0  0  0  0  0  0  0
    9.2221   -2.6777    0.0000 C   0  0  0  0  0  0  0  0  0  0  0  0
    8.0679   -0.6810    0.0000 C   0  0  0  0  0  0  0  0  0  0  0  0
    6.9137   -2.6777    0.0000 C   0  0  0  0  0  0  0  0  0  0  0  0
   10.3763   -1.9852    0.0000 C   0  0  0  0  0  0  0  0  0  0  0  0
    9.2221   -0.0000    0.0000 C   0  0  0  0  0  0  0  0  0  0  0  0
    6.9137   -0.0000    0.0000 C   0  0  0  0  0  0  0  0  0  0  0  0
    6.9137   -4.0051    0.0000 O   0  0  0  0  0  0  0  0  0  0  0  0
    5.7595   -1.9852    0.0000 C   0  0  0  0  0  0  0  0  0  0  0  0
   11.5420   -2.6316    0.0000 O   0  0  0  0  0  0  0  0  0  0  0  0
   10.3763   -0.6925    0.0000 C   0  0  0  0  0  0  0  0  0  0  0  0
    5.7595   -0.6925    0.0000 C   0  0  0  0  0  0  0  0  0  0  0  0
    5.7595   -4.6630    0.0000 C   0  0  0  0  0  0  0  0  0  0  0  0
   11.5420   -0.0346    0.0000 O   0  0  0  0  0  0  0  0  0  0  0  0
    4.6053   -3.9935    0.0000 C   0  0  0  0  0  0  0  0  0  0  0  0
    3.4511   -4.6514    0.0000 C   0  0  0  0  0  0  0  0  0  0  0  0
    4.6053   -2.6777    0.0000 O   0  0  0  0  0  0  0  0  0  0  0  0
    2.3084   -3.9935    0.0000 N   0  0  0  0  0  0  0  0  0  0  0  0
    1.1542   -4.6514    0.0000 C   0  0  0  0  0  0  0  0  0  0  0  0
    0.4963   -3.4972    0.0000 C   0  0  0  0  0  0  0  0  0  0  0  0
    1.8121   -5.8056    0.0000 C   0  0  0  0  0  0  0  0  0  0  0  0
    0.0000   -5.3209    0.0000 C   0  0  0  0  0  0  0  0  0  0  0  0
  1  2  1  0  0  0  0 
  1  3  2  0  0  0  0 
  1  4  1  0  0  0  0 
  2  5  1  0  0  0  0 
  3  6  1  0  0  0  0 
  3  7  1  0  0  0  0 
  4  8  1  0  0  0  0 
  4  9  2  0  0  0  0 
  5 10  1  1  0  0  0 
  5 11  1  0  0  0  0 
  6 11  1  0  0  0  0 
  7 12  2  0  0  0  0 
  8 13  1  0  0  0  0 
 12  9  1  0  0  0  0 
 11 14  1  1  0  0  0 
 15 13  1  0  0  0  0 
 15 16  1  0  0  0  0 
 15 17  1  0  0  0  0 
 18 16  1  0  0  0  0 
 18 19  1  0  0  0  0 
 19 20  1  0  0  0  0 
 19 21  1  0  0  0  0 
 19 22  1  0  0  0  0 
M  END
> <Name>
2,3-Naphthalenediol, 5-(3-((1,1-dimethylethyl)amino)-2-hydroxypropoxy)-1,2,3,4-tetrahydro-, cis-

> <Source>
DSSTox2DMolFile

> <Tox>
1.766

> <CAS>
42200-33-9

$$$$

  CDK

 22 23  0  0  0  0  0  0  0  0999 V2000
    4.3641   -2.1982    0.0000 C   0  0  0  0  0  0  0  0  0  0  0  0
    3.3777   -1.2974    0.0000 C   0  0  0  0  0  0  0  0  0  0  0  0
    3.0881   -2.5949    0.0000 C   0  0  0  0  0  0  0  0  0  0  0  0
    5.6616   -2.4662    0.0000 C   0  0  0  0  0  0  0  0  0  0  0  0
    3.6457   -0.0000    0.0000 C   0  0  0  0  0  0  0  0  0  0  0  0
    2.3697   -0.4182    0.0000 C   0  0  0  0  0  0  0  0  0  0  0  0
    2.1874   -3.5921    0.0000 C   0  0  0  0  0  0  0  0  0  0  0  0
    6.5408   -1.4797    0.0000 O   0  0  0  0  0  0  0  0  0  0  0  0
    6.0691   -3.7315    0.0000 O   0  0  0  0  0  0  0  0  0  0  0  0
    0.9007   -3.3133    0.0000 C   0  0  0  0  0  0  0  0  0  0  0  0
    7.3772   -4.0103    0.0000 C   0  0  0  0  0  0  0  0  0  0  0  0
    0.4825   -2.0480    0.0000 C   0  0  0  0  0  0  0  0  0  0  0  0
    0.0000   -4.2891    0.0000 C   0  0  0  0  0  0  0  0  0  0  0  0
    7.9026   -5.2220    0.0000 C   0  0  0  0  0  0  0  0  0  0  0  0
    8.3530   -3.1203    0.0000 C   0  0  0  0  0  0  0  0  0  0  0  0
    9.2322   -5.0826    0.0000 C   0  0  0  0  0  0  0  0  0  0  0  0
    7.2485   -6.3907    0.0000 C   0  0  0  0  0  0  0  0  0  0  0  0
    9.5110   -3.7851    0.0000 C   0  0  0  0  0  0  0  0  0  0  0  0
   10.1115   -6.0905    0.0000 C   0  0  0  0  0  0  0  0  0  0  0  0
   10.7227   -3.2383    0.0000 O   0  0  0  0  0  0  0  0  0  0  0  0
    9.7148   -7.3451    0.0000 C   0  0  0  0  0  0  0  0  0  0  0  0
   10.5940   -8.3423    0.0000 C   0  0  0  0  0  0  0  0  0  0  0  0
  1  2  1  0  0  0  0 
  1  3  1  0  0  0  0 
  1  4  1  1  0  0  0 
  2  3  1  0  0  0  0 
  2  5  1  0  0  0  0 
  2  6  1  0  0  0  0 
  3  7  1  6  0  0  0 
  4  8  2  0  0  0  0 
  4  9  1  0  0  0  0 
  7 10  2  0  0  0  0 
 11  9  1  6  0  0  0 
 10 12  1  0  0  0  0 
 10 13  1  0  0  0  0 
 11 14  1  0  0  0  0 
 11 15  1  0  0  0  0 
 14 16  2  0  0  0  0 
 14 17  1  0  0  0  0 
 18 15  1  0  0  0  0 
 16 18  1  0  0  0  0 
 16 19  1  0  0  0  0 
 18 20  2  0  0  0  0 
 19 21  1  0  0  0  0 
 21 22  2  0  0  0  0 
M  END
> <Name>
Cyclopropanecarboxylic acid, 2,2-dimethyl-3-(2-methyl-1-propenyl)-, 2-methyl-4-oxo-3-(2-propenyl)-2-cyclopenten-1-yl ester, (1-alpha(S*),3-beta)-(+-)-

> <Source>
DSSTox2DMolFile

> <Tox>
2.360

> <CAS>
42534-61-2

$$$$

  CDK

 14 14  0  0  0  0  0  0  0  0999 V2000
   -1.6215   -0.0428   -0.0739 C   0  0  0  0  0  0  0  0  0  0  0  0
   -1.6544   -1.4321   -0.0748 C   0  0  0  0  0  0  0  0  0  0  0  0
   -0.4010    0.6360   -0.0360 C   0  0  0  0  0  0  0  0  0  0  0  0
   -2.9241    0.7303   -0.0976 C   0  0  0  0  0  0  0  0  0  0  0  0
   -0.4521   -2.1623   -0.0375 C   0  0  0  0  0  0  0  0  0  0  0  0
    0.7824   -0.0928   -0.0053 C   0  0  0  0  0  0  0  0  0  0  0  0
   -2.8961    1.8172   -1.0048 O   0  0  0  0  0  0  0  0  0  0  0  0
   -3.2220    1.3071    1.2840 C   0  0  0  0  0  0  0  0  0  0  0  0
    0.7769   -1.4831   -0.0059 C   0  0  0  0  0  0  0  0  0  0  0  0
   -0.4794   -3.5599   -0.0340 N   0  0  0  0  0  0  0  0  0  0  0  0
    2.1406    0.6082    0.0281 C   0  0  0  0  0  0  0  0  0  0  0  0
    2.9143    0.3392   -1.0506 F   0  0  0  0  0  0  0  0  0  0  0  0
    2.9101    0.2540    1.0850 F   0  0  0  0  0  0  0  0  0  0  0  0
    2.1041    1.9585    0.0823 F   0  0  0  0  0  0  0  0  0  0  0  0
  1  2  1  0  0  0  0 
  1  3  2  0  0  0  0 
  1  4  1  0  0  0  0 
  2  5  2  0  0  0  0 
  6  3  1  0  0  0  0 
  4  7  1  0  0  0  0 
  4  8  1  0  0  0  0 
  5  9  1  0  0  0  0 
  5 10  1  0  0  0  0 
  9  6  2  0  0  0  0 
  6 11  1  0  0  0  0 
 11 12  1  0  0  0  0 
 11 13  1  0  0  0  0 
 11 14  1  0  0  0  0 
M  END
> <Name>
Benzenemethanol, 3-amino-alpha-methyl-5-(trifluoromethyl)-

> <Source>
DougDB3DMolFile

> <Tox>
2.368

> <CAS>
42818-60-0

$$$$

  CDK

 26 30  0  0  0  0  0  0  0  0999 V2000
    4.5315   -2.6088    0.0000 N   0  0  0  0  0  0  0  0  0  0  0  0
    5.6599   -1.9498    0.0000 C   0  0  0  0  0  0  0  0  0  0  0  0
    4.5315   -3.9177    0.0000 C   0  0  0  0  0  0  0  0  0  0  0  0
    3.4031   -1.9498    0.0000 C   0  0  0  0  0  0  0  0  0  0  0  0
    5.6599   -0.6409    0.0000 C   0  0  0  0  0  0  0  0  0  0  0  0
    6.7702   -2.6088    0.0000 C   0  0  0  0  0  0  0  0  0  0  0  0
    5.6599   -4.5586    0.0000 C   0  0  0  0  0  0  0  0  0  0  0  0
    3.3670   -4.5947    0.0000 C   0  0  0  0  0  0  0  0  0  0  0  0
    3.4031   -0.6409    0.0000 C   0  0  0  0  0  0  0  0  0  0  0  0
    2.2748   -2.6088    0.0000 C   0  0  0  0  0  0  0  0  0  0  0  0
    6.7702   -0.0000    0.0000 C   0  0  0  0  0  0  0  0  0  0  0  0
    6.7702   -3.9177    0.0000 C   0  0  0  0  0  0  0  0  0  0  0  0
    7.8985   -1.9498    0.0000 N   0  0  0  0  0  0  0  0  0  0  0  0
    3.3670   -5.8675    0.0000 O   0  0  0  0  0  0  0  0  0  0  0  0
    2.2206   -3.9357    0.0000 O   0  0  0  0  0  0  0  0  0  0  0  0
    2.2748   -0.0000    0.0000 C   0  0  0  0  0  0  0  0  0  0  0  0
    1.1645   -1.9498    0.0000 C   0  0  0  0  0  0  0  0  0  0  0  0
    7.8985   -0.6409    0.0000 C   0  0  0  0  0  0  0  0  0  0  0  0
    7.8985   -4.5586    0.0000 C   0  0  0  0  0  0  0  0  0  0  0  0
    6.7702   -5.2266    0.0000 C   0  0  0  0  0  0  0  0  0  0  0  0
    9.0269   -2.6088    0.0000 C   0  0  0  0  0  0  0  0  0  0  0  0
    1.1284   -4.5766    0.0000 C   0  0  0  0  0  0  0  0  0  0  0  0
    1.1645   -0.6409    0.0000 C   0  0  0  0  0  0  0  0  0  0  0  0
    9.0269   -3.9177    0.0000 C   0  0  0  0  0  0  0  0  0  0  0  0
    5.6599   -5.8675    0.0000 C   0  0  0  0  0  0  0  0  0  0  0  0
    0.0000   -3.9177    0.0000 C   0  0  0  0  0  0  0  0  0  0  0  0
  1  2  1  0  0  0  0 
  1  3  1  0  0  0  0 
  1  4  1  0  0  0  0 
  2  5  2  0  0  0  0 
  2  6  1  0  0  0  0 
  3  7  2  0  0  0  0 
  3  8  1  0  0  0  0 
  4  9  2  0  0  0  0 
  4 10  1  0  0  0  0 
  5 11  1  0  0  0  0 
  5  9  1  0  0  0  0 
 12  6  1  0  0  0  0 
  6 13  1  0  0  0  0 
  7 12  1  0  0  0  0 
  8 14  2  0  0  0  0 
  8 15  1  0  0  0  0 
  9 16  1  0  0  0  0 
 10 17  2  0  0  0  0 
 11 18  1  0  0  0  0 
 12 19  1  0  0  0  0 
 12 20  1  6  0  0  0 
 13 18  1  0  0  0  0 
 13 21  1  0  0  0  0 
 15 22  1  0  0  0  0 
 16 23  2  0  0  0  0 
 17 23  1  0  0  0  0 
 19 24  1  0  0  0  0 
 20 25  1  0  0  0  0 
 21 24  1  0  0  0  0 
 22 26  1  0  0  0  0 
M  END
> <Name>
Eburnamenine-14-carboxylic acid, ethyl ester, (3-alpha,16-alpha)-

> <Source>
DSSTox2DMolFile

> <Tox>
2.843

> <CAS>
42971-09-5

$$$$

  CDK

 20 22  0  0  0  0  0  0  0  0999 V2000
   -5.5828   -2.4966    0.1538 O   0  0  0  0  0  0  0  0  0  0  0  0
   -4.4630   -2.7505   -0.2323 C   0  0  0  0  0  0  0  0  0  0  0  0
   -3.9298   -4.0448   -0.7282 C   0  0  0  0  0  0  0  0  0  0  0  0
   -3.3199   -1.8290   -0.3129 C   0  0  0  0  0  0  0  0  0  0  0  0
   -4.6318   -5.1724   -0.8280 C   0  0  0  0  0  0  0  0  0  0  0  0
   -2.4988   -3.8973   -1.0965 C   0  0  0  0  0  0  0  0  0  0  0  0
   -2.1907   -2.4882   -0.8100 C   0  0  0  0  0  0  0  0  0  0  0  0
   -3.2848   -0.4918    0.0321 C   0  0  0  0  0  0  0  0  0  0  0  0
   -4.0068   -6.3987   -1.3320 C   0  0  0  0  0  0  0  0  0  0  0  0
   -6.0415   -5.2119   -0.4283 C   0  0  0  0  0  0  0  0  0  0  0  0
   -1.7444   -4.7373   -1.5357 O   0  0  0  0  0  0  0  0  0  0  0  0
   -0.9862   -1.8338   -0.9803 C   0  0  0  0  0  0  0  0  0  0  0  0
   -2.0726    0.1838   -0.1347 C   0  0  0  0  0  0  0  0  0  0  0  0
   -4.7691   -7.5041   -1.4187 C   0  0  0  0  0  0  0  0  0  0  0  0
   -6.7010   -6.3772   -0.5606 C   0  0  0  0  0  0  0  0  0  0  0  0
   -0.9354   -0.4802   -0.6358 C   0  0  0  0  0  0  0  0  0  0  0  0
   -6.1196   -7.5446   -1.0622 N   0  0  0  0  0  0  0  0  0  0  0  0
   -6.8778   -8.7883   -1.1377 C   0  0  0  0  0  0  0  0  0  0  0  0
   -6.8980   -9.2853   -2.5774 C   0  0  0  0  0  0  0  0  0  0  0  0
   -6.2506   -9.8158   -0.2048 C   0  0  0  0  0  0  0  0  0  0  0  0
  1  2  2  0  0  0  0 
  3  2  1  0  0  0  0 
  4  2  1  0  0  0  0 
  3  5  2  0  0  0  0 
  3  6  1  0  0  0  0 
  4  7  1  0  0  0  0 
  4  8  2  0  0  0  0 
  5  9  1  0  0  0  0 
  5 10  1  0  0  0  0 
 11  6  2  0  0  0  0 
  7  6  1  0  0  0  0 
  7 12  2  0  0  0  0 
  8 13  1  0  0  0  0 
 14  9  2  0  0  0  0 
 15 10  2  0  0  0  0 
 12 16  1  0  0  0  0 
 13 16  2  0  0  0  0 
 17 14  1  0  0  0  0 
 17 15  1  0  0  0  0 
 17 18  1  0  0  0  0 
 18 19  1  0  0  0  0 
 18 20  1  0  0  0  0 
M  END
> <Name>
1,3-Indandione, 2-(1-(1-methylethyl)-4(1H)-pyridinylidene)-

> <Source>
Chemidplus3DMolFile

> <Tox>
2.262

> <CAS>
49803-32-9

$$$$

  CDK

 21 22  0  0  0  0  0  0  0  0999 V2000
    5.5780   -4.3895    6.9795 Cl  0  0  0  0  0  0  0  0  0  0  0  0
    4.5052   -3.3824    6.0690 C   0  0  0  0  0  0  0  0  0  0  0  0
    4.6694   -3.1504    4.7035 C   0  0  0  0  0  0  0  0  0  0  0  0
    3.4430   -2.7924    6.7539 C   0  0  0  0  0  0  0  0  0  0  0  0
    6.0055   -3.8690    3.7501 S   0  0  0  0  0  0  0  0  0  0  0  0
    3.7714   -2.3282    4.0228 C   0  0  0  0  0  0  0  0  0  0  0  0
    2.5448   -1.9703    6.0733 C   0  0  0  0  0  0  0  0  0  0  0  0
    5.0895   -4.8297    2.5149 C   0  0  0  0  0  0  0  0  0  0  0  0
    2.7243   -1.7522    4.7193 C   0  0  0  0  0  0  0  0  0  0  0  0
    6.0519   -5.5440    1.5726 C   0  0  0  0  0  0  0  0  0  0  0  0
    1.8323   -0.9359    4.0442 O   0  0  0  0  0  0  0  0  0  0  0  0
    5.2967   -6.3581    0.5321 C   0  0  0  0  0  0  0  0  0  0  0  0
    1.3693   -1.3657    2.8386 C   0  0  0  0  0  0  0  0  0  0  0  0
    0.9487   -2.6866    2.6837 C   0  0  0  0  0  0  0  0  0  0  0  0
    1.3141   -0.4850    1.7584 C   0  0  0  0  0  0  0  0  0  0  0  0
    0.4729   -3.1268    1.4485 C   0  0  0  0  0  0  0  0  0  0  0  0
    0.8383   -0.9251    0.5233 C   0  0  0  0  0  0  0  0  0  0  0  0
    0.4177   -2.2460    0.3684 C   0  0  0  0  0  0  0  0  0  0  0  0
   -0.0645   -2.6948   -0.8896 N   0  0  0  0  0  0  0  0  0  0  0  0
   -0.4359   -3.8875   -1.0080 O   0  0  0  0  0  0  0  0  0  0  0  0
   -0.1063   -1.8864   -1.8483 O   0  0  0  0  0  0  0  0  0  0  0  0
  1  2  1  0  0  0  0 
  3  2  2  0  0  0  0 
  2  4  1  0  0  0  0 
  5  3  1  0  0  0  0 
  3  6  1  0  0  0  0 
  7  4  2  0  0  0  0 
  5  8  1  0  0  0  0 
  9  6  2  0  0  0  0 
  9  7  1  0  0  0  0 
  8 10  1  0  0  0  0 
 11  9  1  0  0  0  0 
 10 12  1  0  0  0  0 
 11 13  1  0  0  0  0 
 13 14  2  0  0  0  0 
 13 15  1  0  0  0  0 
 14 16  1  0  0  0  0 
 15 17  2  0  0  0  0 
 18 16  2  0  0  0  0 
 18 17  1  0  0  0  0 
 19 18  1  0  0  0  0 
 20 19  1  0  0  0  0 
 21 19  2  0  0  0  0 
M  CHG  1  19   1
M  CHG  1  20  -1
M  END
> <Name>
Benzene, 1-chloro-4-(4-nitrophenoxy)-2-(propylthio)-

> <Source>
Chemidplus3DMolFile

> <Tox>
2.457

> <CAS>
49828-25-3

$$$$

  CDK

 21 23  0  0  0  0  0  0  0  0999 V2000
    6.4864   -0.0000    0.0000 O   0  0  0  0  0  0  0  0  0  0  0  0
    7.4750   -0.8877    0.0000 C   0  0  0  0  0  0  0  0  0  0  0  0
    8.7461   -0.4741    0.0000 O   0  0  0  0  0  0  0  0  0  0  0  0
    7.2027   -2.1890    0.0000 C   0  0  0  0  0  0  0  0  0  0  0  0
    5.9921   -2.7338    0.0000 N   0  0  0  0  0  0  0  0  0  0  0  0
    8.0904   -3.1777    0.0000 C   0  0  0  0  0  0  0  0  0  0  0  0
    6.1233   -4.0553    0.0000 N   0  0  0  0  0  0  0  0  0  0  0  0
    7.4246   -4.3277    0.0000 C   0  0  0  0  0  0  0  0  0  0  0  0
    9.4220   -3.1777    0.0000 C   0  0  0  0  0  0  0  0  0  0  0  0
    5.1347   -4.9430    0.0000 C   0  0  0  0  0  0  0  0  0  0  0  0
    8.0904   -5.4777    0.0000 C   0  0  0  0  0  0  0  0  0  0  0  0
   10.0878   -4.3277    0.0000 C   0  0  0  0  0  0  0  0  0  0  0  0
    3.8535   -4.6000    0.0000 C   0  0  0  0  0  0  0  0  0  0  0  0
    9.4220   -5.4777    0.0000 C   0  0  0  0  0  0  0  0  0  0  0  0
    2.9154   -5.5382    0.0000 C   0  0  0  0  0  0  0  0  0  0  0  0
    3.5105   -3.3088    0.0000 C   0  0  0  0  0  0  0  0  0  0  0  0
    1.6241   -5.1952    0.0000 C   0  0  0  0  0  0  0  0  0  0  0  0
    2.2294   -2.9658    0.0000 C   0  0  0  0  0  0  0  0  0  0  0  0
    4.4487   -2.3706    0.0000 Cl  0  0  0  0  0  0  0  0  0  0  0  0
    1.2811   -3.9141    0.0000 C   0  0  0  0  0  0  0  0  0  0  0  0
    0.0000   -3.5610    0.0000 Cl  0  0  0  0  0  0  0  0  0  0  0  0
  1  2  1  0  0  0  0 
  2  3  2  0  0  0  0 
  2  4  1  0  0  0  0 
  4  5  2  0  0  0  0 
  4  6  1  0  0  0  0 
  5  7  1  0  0  0  0 
  8  6  2  0  0  0  0 
  6  9  1  0  0  0  0 
  7  8  1  0  0  0  0 
  7 10  1  0  0  0  0 
  8 11  1  0  0  0  0 
  9 12  2  0  0  0  0 
 10 13  1  0  0  0  0 
 14 11  2  0  0  0  0 
 12 14  1  0  0  0  0 
 13 15  2  0  0  0  0 
 13 16  1  0  0  0  0 
 15 17  1  0  0  0  0 
 18 16  2  0  0  0  0 
 16 19  1  0  0  0  0 
 17 20  2  0  0  0  0 
 20 18  1  0  0  0  0 
 20 21  1  0  0  0  0 
M  END
> <Name>
1H-Indazole-3-carboxylic acid, 1-((2,4-dichlorophenyl)methyl)- (9CI)

> <Source>
DSSTox2DMolFile

> <Tox>
2.276

> <CAS>
50264-69-2

$$$$

  CDK

 18 19  0  0  0  0  0  0  0  0999 V2000
    6.0633    0.0000    0.0000 C   0  0  0  0  0  0  0  0  0  0  0  0
    6.0633    1.3992    0.0000 N   0  0  0  0  0  0  0  0  0  0  0  0
    4.8506    2.0988    0.0000 C   0  0  0  0  0  0  0  0  0  0  0  0
    3.6380    1.3992    0.0000 N   0  0  0  0  0  0  0  0  0  0  0  0
    4.8506    3.4981    0.0000 N   0  0  0  0  0  0  0  0  0  0  0  0
    2.4253    2.0988    0.0000 C   0  0  0  0  0  0  0  0  0  0  0  0
    3.6380    4.1977    0.0000 C   0  0  0  0  0  0  0  0  0  0  0  0
    1.2127    1.3992    0.0000 Cl  0  0  0  0  0  0  0  0  0  0  0  0
    2.4253    3.4981    0.0000 C   0  0  0  0  0  0  0  0  0  0  0  0
    3.6380    5.5969    0.0000 N   0  0  0  0  0  0  0  0  0  0  0  0
    1.2127    4.1977    0.0000 S   0  0  0  0  0  0  0  0  0  0  0  0
    2.4253    6.2965    0.0000 C   0  0  0  0  0  0  0  0  0  0  0  0
    4.8506    6.2965    0.0000 C   0  0  0  0  0  0  0  0  0  0  0  0
    0.0000    3.4981    0.0000 C   0  0  0  0  0  0  0  0  0  0  0  0
    2.4253    7.6957    0.0000 C   0  0  0  0  0  0  0  0  0  0  0  0
    4.8506    7.6957    0.0000 C   0  0  0  0  0  0  0  0  0  0  0  0
    3.6380    8.3953    0.0000 N   0  0  0  0  0  0  0  0  0  0  0  0
    3.6380    9.7946    0.0000 C   0  0  0  0  0  0  0  0  0  0  0  0
  1  2  1  0  0  0  0 
  2  3  1  0  0  0  0 
  3  4  2  0  0  0  0 
  3  5  1  0  0  0  0 
  4  6  1  0  0  0  0 
  7  5  2  0  0  0  0 
  6  8  1  0  0  0  0 
  6  9  2  0  0  0  0 
  9  7  1  0  0  0  0 
  7 10  1  0  0  0  0 
  9 11  1  0  0  0  0 
 10 12  1  0  0  0  0 
 10 13  1  0  0  0  0 
 11 14  1  0  0  0  0 
 12 15  1  0  0  0  0 
 16 13  1  0  0  0  0 
 15 17  1  0  0  0  0 
 17 16  1  0  0  0  0 
 17 18  1  0  0  0  0 
M  END
> <Name>
Pyrimidine, 4-chloro-2-(methylamino)-5-(methylthio)-6-(4-methyl-1-piperazinyl)-

> <Source>
IndexNet2DMolFile

> <Tox>
2.556

> <CAS>
50335-55-2

$$$$

  CDK

 18 19  0  0  0  0  0  0  0  0999 V2000
    3.9892   -2.3365    0.0000 N   0  0  0  0  0  0  0  0  0  0  0  0
    4.7708   -1.2619    0.0000 C   0  0  0  0  0  0  0  0  0  0  0  0
    4.7708   -3.4193    0.0000 C   0  0  0  0  0  0  0  0  0  0  0  0
    2.6622   -2.3365    0.0000 C   0  0  0  0  0  0  0  0  0  0  0  0
    6.0408   -1.6771    0.0000 O   0  0  0  0  0  0  0  0  0  0  0  0
    4.3637   -0.0000    0.0000 O   0  0  0  0  0  0  0  0  0  0  0  0
    6.0408   -3.0041    0.0000 C   0  0  0  0  0  0  0  0  0  0  0  0
    4.3637   -4.6812    0.0000 O   0  0  0  0  0  0  0  0  0  0  0  0
    1.9946   -3.4926    0.0000 C   0  0  0  0  0  0  0  0  0  0  0  0
    1.9946   -1.1886    0.0000 C   0  0  0  0  0  0  0  0  0  0  0  0
    7.3597   -2.8657    0.0000 C   0  0  0  0  0  0  0  0  0  0  0  0
    6.3094   -4.3067    0.0000 C   0  0  0  0  0  0  0  0  0  0  0  0
    0.6676   -3.4926    0.0000 C   0  0  0  0  0  0  0  0  0  0  0  0
    0.6676   -1.1886    0.0000 C   0  0  0  0  0  0  0  0  0  0  0  0
    8.1412   -3.9404    0.0000 C   0  0  0  0  0  0  0  0  0  0  0  0
    0.0000   -4.6405    0.0000 Cl  0  0  0  0  0  0  0  0  0  0  0  0
    0.0000   -2.3365    0.0000 C   0  0  0  0  0  0  0  0  0  0  0  0
    0.0000   -0.0326    0.0000 Cl  0  0  0  0  0  0  0  0  0  0  0  0
  1  2  1  0  0  0  0 
  1  3  1  0  0  0  0 
  1  4  1  0  0  0  0 
  2  5  1  0  0  0  0 
  2  6  2  0  0  0  0 
  7  3  1  0  0  0  0 
  3  8  2  0  0  0  0 
  4  9  2  0  0  0  0 
  4 10  1  0  0  0  0 
  5  7  1  0  0  0  0 
  7 11  1  0  0  0  0 
  7 12  1  0  0  0  0 
  9 13  1  0  0  0  0 
 14 10  2  0  0  0  0 
 11 15  2  0  0  0  0 
 13 16  1  0  0  0  0 
 13 17  2  0  0  0  0 
 17 14  1  0  0  0  0 
 14 18  1  0  0  0  0 
M  END
> <Name>
2,4-Oxazolidinedione, 3-(3,5-dichlorophenyl)-5-ethenyl-5-methyl-

> <Source>
DSSTox2DMolFile

> <Tox>
1.457

> <CAS>
50471-44-8

$$$$

  CDK

 23 25  0  0  0  0  0  0  0  0999 V2000
   -4.7282    0.3450    1.5507 S   0  0  0  0  0  0  0  0  0  0  0  0
   -3.6854   -0.9051    2.0902 N   0  0  0  0  0  0  0  0  0  0  0  0
   -5.1694    1.0772    3.1212 C   0  0  0  0  0  0  0  0  0  0  0  0
   -2.3060   -0.7193    2.2438 C   0  0  0  0  0  0  0  0  0  0  0  0
   -4.3278   -2.1518    2.4817 C   0  0  0  0  0  0  0  0  0  0  0  0
   -4.3972    2.1106    3.6442 C   0  0  0  0  0  0  0  0  0  0  0  0
   -6.2834    0.6105    3.8131 C   0  0  0  0  0  0  0  0  0  0  0  0
   -1.8321    0.5473    1.8171 O   0  0  0  0  0  0  0  0  0  0  0  0
   -1.5471   -1.5699    2.7085 O   0  0  0  0  0  0  0  0  0  0  0  0
   -4.7418    2.6819    4.8693 C   0  0  0  0  0  0  0  0  0  0  0  0
   -6.6281    1.1817    5.0381 C   0  0  0  0  0  0  0  0  0  0  0  0
   -0.4989    0.7576    1.9532 C   0  0  0  0  0  0  0  0  0  0  0  0
   -5.8572    2.2174    5.5661 C   0  0  0  0  0  0  0  0  0  0  0  0
    0.0317    1.3042    3.1060 C   0  0  0  0  0  0  0  0  0  0  0  0
    0.3827    0.4286    0.9222 C   0  0  0  0  0  0  0  0  0  0  0  0
   -0.7092    1.6733    4.1975 O   0  0  0  0  0  0  0  0  0  0  0  0
    1.3912    1.5189    3.2563 C   0  0  0  0  0  0  0  0  0  0  0  0
    1.7627    0.6445    1.0673 C   0  0  0  0  0  0  0  0  0  0  0  0
    0.2255    2.3659    5.0746 C   0  0  0  0  0  0  0  0  0  0  0  0
    1.6676    2.0617    4.6054 C   0  0  0  0  0  0  0  0  0  0  0  0
    2.2771    1.1905    2.2460 C   0  0  0  0  0  0  0  0  0  0  0  0
   -0.0123    1.8559    6.4968 C   0  0  0  0  0  0  0  0  0  0  0  0
   -0.0887    3.8654    4.9982 C   0  0  0  0  0  0  0  0  0  0  0  0
  1  2  1  0  0  0  0 
  1  3  1  0  0  0  0 
  2  4  1  0  0  0  0 
  2  5  1  0  0  0  0 
  3  6  2  0  0  0  0 
  3  7  1  0  0  0  0 
  8  4  1  0  0  0  0 
  9  4  2  0  0  0  0 
  6 10  1  0  0  0  0 
  7 11  2  0  0  0  0 
  8 12  1  0  0  0  0 
 10 13  2  0  0  0  0 
 11 13  1  0  0  0  0 
 14 12  1  0  0  0  0 
 12 15  2  0  0  0  0 
 16 14  1  0  0  0  0 
 17 14  2  0  0  0  0 
 18 15  1  0  0  0  0 
 16 19  1  0  0  0  0 
 20 17  1  0  0  0  0 
 17 21  1  0  0  0  0 
 21 18  2  0  0  0  0 
 19 20  1  0  0  0  0 
 19 22  1  0  0  0  0 
 19 23  1  0  0  0  0 
M  END
> <Name>
Carbamic acid, methyl(phenylthio)-, 2,3-dihydro-2,2-dimethyl-7-benzofuranyl ester

> <Source>
Chemidplus3DMolFile

> <Tox>
4.120

> <CAS>
50539-66-7

$$$$

  CDK

 27 29  0  0  0  0  0  0  0  0999 V2000
   -4.9382   -0.3010   -1.6159 S   0  0  0  0  0  0  0  0  0  0  0  0
   -3.2859   -0.7143   -2.1574 C   0  0  0  0  0  0  0  0  0  0  0  0
   -4.5786    1.1416   -0.5661 C   0  0  0  0  0  0  0  0  0  0  0  0
   -2.7530   -1.9661   -1.8612 C   0  0  0  0  0  0  0  0  0  0  0  0
   -2.5388    0.2171   -2.8736 C   0  0  0  0  0  0  0  0  0  0  0  0
   -3.7402    0.7704    0.5559 N   0  0  0  0  0  0  0  0  0  0  0  0
   -1.4636   -2.2888   -2.2840 C   0  0  0  0  0  0  0  0  0  0  0  0
   -1.2493   -0.1057   -3.2965 C   0  0  0  0  0  0  0  0  0  0  0  0
   -2.8660    1.6384    1.1782 C   0  0  0  0  0  0  0  0  0  0  0  0
   -0.7118   -1.3587   -3.0016 C   0  0  0  0  0  0  0  0  0  0  0  0
   -2.1874    0.9979    2.2346 O   0  0  0  0  0  0  0  0  0  0  0  0
   -2.6778    2.8101    0.8643 O   0  0  0  0  0  0  0  0  0  0  0  0
    0.6671   -1.7033   -3.4530 C   0  0  0  0  0  0  0  0  0  0  0  0
   -1.3044    1.7793    2.9048 C   0  0  0  0  0  0  0  0  0  0  0  0
    1.5919   -2.0388   -2.2419 C   0  0  0  0  0  0  0  0  0  0  0  0
    1.4136   -0.5810   -4.2480 C   0  0  0  0  0  0  0  0  0  0  0  0
    0.6595   -2.9455   -4.3971 C   0  0  0  0  0  0  0  0  0  0  0  0
    0.0196    1.8671    2.5192 C   0  0  0  0  0  0  0  0  0  0  0  0
   -1.7101    2.5207    4.0159 C   0  0  0  0  0  0  0  0  0  0  0  0
    0.5583    1.1999    1.4510 O   0  0  0  0  0  0  0  0  0  0  0  0
    0.9278    2.6646    3.1944 C   0  0  0  0  0  0  0  0  0  0  0  0
   -0.7941    3.3309    4.7062 C   0  0  0  0  0  0  0  0  0  0  0  0
    1.9936    1.4338    1.5416 C   0  0  0  0  0  0  0  0  0  0  0  0
    2.2471    2.5992    2.5263 C   0  0  0  0  0  0  0  0  0  0  0  0
    0.5380    3.4105    4.2922 C   0  0  0  0  0  0  0  0  0  0  0  0
    2.6473    0.1332    2.0256 C   0  0  0  0  0  0  0  0  0  0  0  0
    2.4945    1.7773    0.1379 C   0  0  0  0  0  0  0  0  0  0  0  0
  1  2  1  0  0  0  0 
  1  3  1  0  0  0  0 
  4  2  2  0  0  0  0 
  5  2  1  0  0  0  0 
  6  3  1  0  0  0  0 
  7  4  1  0  0  0  0 
  8  5  2  0  0  0  0 
  6  9  1  0  0  0  0 
 10  7  2  0  0  0  0 
 10  8  1  0  0  0  0 
 11  9  1  0  0  0  0 
 12  9  2  0  0  0  0 
 13 10  1  0  0  0  0 
 11 14  1  0  0  0  0 
 13 15  1  0  0  0  0 
 13 16  1  0  0  0  0 
 13 17  1  0  0  0  0 
 18 14  1  0  0  0  0 
 14 19  2  0  0  0  0 
 20 18  1  0  0  0  0 
 21 18  2  0  0  0  0 
 22 19  1  0  0  0  0 
 20 23  1  0  0  0  0 
 24 21  1  0  0  0  0 
 21 25  1  0  0  0  0 
 25 22  2  0  0  0  0 
 23 24  1  0  0  0  0 
 23 26  1  0  0  0  0 
 23 27  1  0  0  0  0 
M  END
> <Name>
Carbamic acid, ((p-tert-butylphenyl)thio)methyl-, 2,3-dihydro-2,2-dimethyl-7-benzofuranyl ester

> <Source>
Chemidplus3DMolFile

> <Tox>
3.489

> <CAS>
50539-70-3

$$$$

  CDK

 28 30  0  0  0  0  0  0  0  0999 V2000
   -5.6127    1.9963    3.6516 Cl  0  0  0  0  0  0  0  0  0  0  0  0
   -4.6203    0.6538    4.1656 C   0  0  0  0  0  0  0  0  0  0  0  0
   -4.1887   -0.2971    3.2235 C   0  0  0  0  0  0  0  0  0  0  0  0
   -4.2632    0.5413    5.5093 C   0  0  0  0  0  0  0  0  0  0  0  0
   -4.6448   -0.1512    1.5006 S   0  0  0  0  0  0  0  0  0  0  0  0
   -3.3882   -1.3643    3.6693 C   0  0  0  0  0  0  0  0  0  0  0  0
   -4.8075    1.7321    6.6625 Cl  0  0  0  0  0  0  0  0  0  0  0  0
   -3.4686   -0.5240    5.9330 C   0  0  0  0  0  0  0  0  0  0  0  0
   -3.9478    1.3735    1.1387 N   0  0  0  0  0  0  0  0  0  0  0  0
   -2.8347   -2.5680    2.5311 Cl  0  0  0  0  0  0  0  0  0  0  0  0
   -3.0312   -1.4767    5.0130 C   0  0  0  0  0  0  0  0  0  0  0  0
   -3.0238   -0.6652    7.6136 Cl  0  0  0  0  0  0  0  0  0  0  0  0
   -2.5755    1.6218    1.2661 C   0  0  0  0  0  0  0  0  0  0  0  0
   -4.8491    2.3766    0.5896 C   0  0  0  0  0  0  0  0  0  0  0  0
   -2.0407   -2.8098    5.5478 Cl  0  0  0  0  0  0  0  0  0  0  0  0
   -1.8321    0.5473    1.8171 O   0  0  0  0  0  0  0  0  0  0  0  0
   -2.0360    2.6773    0.9340 O   0  0  0  0  0  0  0  0  0  0  0  0
   -0.4989    0.7576    1.9532 C   0  0  0  0  0  0  0  0  0  0  0  0
    0.0317    1.3042    3.1060 C   0  0  0  0  0  0  0  0  0  0  0  0
    0.3827    0.4286    0.9222 C   0  0  0  0  0  0  0  0  0  0  0  0
   -0.7092    1.6733    4.1975 O   0  0  0  0  0  0  0  0  0  0  0  0
    1.3912    1.5189    3.2563 C   0  0  0  0  0  0  0  0  0  0  0  0
    1.7627    0.6445    1.0673 C   0  0  0  0  0  0  0  0  0  0  0  0
    0.2255    2.3659    5.0746 C   0  0  0  0  0  0  0  0  0  0  0  0
    1.6676    2.0617    4.6054 C   0  0  0  0  0  0  0  0  0  0  0  0
    2.2771    1.1905    2.2460 C   0  0  0  0  0  0  0  0  0  0  0  0
   -0.0123    1.8559    6.4968 C   0  0  0  0  0  0  0  0  0  0  0  0
   -0.0887    3.8654    4.9982 C   0  0  0  0  0  0  0  0  0  0  0  0
  1  2  1  0  0  0  0 
  3  2  2  0  0  0  0 
  2  4  1  0  0  0  0 
  5  3  1  0  0  0  0 
  3  6  1  0  0  0  0 
  7  4  1  0  0  0  0 
  4  8  2  0  0  0  0 
  5  9  1  0  0  0  0 
 10  6  1  0  0  0  0 
  6 11  2  0  0  0  0 
 12  8  1  0  0  0  0 
 11  8  1  0  0  0  0 
  9 13  1  0  0  0  0 
  9 14  1  0  0  0  0 
 15 11  1  0  0  0  0 
 16 13  1  0  0  0  0 
 17 13  2  0  0  0  0 
 16 18  1  0  0  0  0 
 19 18  1  0  0  0  0 
 18 20  2  0  0  0  0 
 21 19  1  0  0  0  0 
 22 19  2  0  0  0  0 
 23 20  1  0  0  0  0 
 21 24  1  0  0  0  0 
 25 22  1  0  0  0  0 
 22 26  1  0  0  0  0 
 26 23  2  0  0  0  0 
 24 25  1  0  0  0  0 
 24 27  1  0  0  0  0 
 24 28  1  0  0  0  0 
M  END
> <Name>
Carbamic acid, methyl((pentachlorophenyl)thio)-, 2,3-dihydro-2,2-dimethyl-7-benzofuranyl ester

> <Source>
Chemidplus3DMolFile

> <Tox>
4.302

> <CAS>
50539-76-9

$$$$

  CDK

 19 20  0  0  0  0  0  0  0  0999 V2000
   -4.6448   -0.1244    1.5645 S   0  0  0  0  0  0  0  0  0  0  0  0
   -3.9435    1.3787    1.1373 N   0  0  0  0  0  0  0  0  0  0  0  0
   -5.0229    0.2224    3.2983 C   0  0  0  0  0  0  0  0  0  0  0  0
   -2.5724    1.6243    1.2657 C   0  0  0  0  0  0  0  0  0  0  0  0
   -4.8494    2.3785    0.5907 C   0  0  0  0  0  0  0  0  0  0  0  0
   -5.6760   -0.9804    3.9521 C   0  0  0  0  0  0  0  0  0  0  0  0
   -1.8321    0.5473    1.8171 O   0  0  0  0  0  0  0  0  0  0  0  0
   -2.0307    2.6793    0.9357 O   0  0  0  0  0  0  0  0  0  0  0  0
   -0.4989    0.7576    1.9532 C   0  0  0  0  0  0  0  0  0  0  0  0
    0.0317    1.3042    3.1060 C   0  0  0  0  0  0  0  0  0  0  0  0
    0.3827    0.4286    0.9222 C   0  0  0  0  0  0  0  0  0  0  0  0
   -0.7092    1.6733    4.1975 O   0  0  0  0  0  0  0  0  0  0  0  0
    1.3912    1.5189    3.2563 C   0  0  0  0  0  0  0  0  0  0  0  0
    1.7627    0.6445    1.0673 C   0  0  0  0  0  0  0  0  0  0  0  0
    0.2255    2.3659    5.0746 C   0  0  0  0  0  0  0  0  0  0  0  0
    1.6676    2.0617    4.6054 C   0  0  0  0  0  0  0  0  0  0  0  0
    2.2771    1.1905    2.2460 C   0  0  0  0  0  0  0  0  0  0  0  0
   -0.0887    3.8654    4.9982 C   0  0  0  0  0  0  0  0  0  0  0  0
   -0.0123    1.8559    6.4968 C   0  0  0  0  0  0  0  0  0  0  0  0
  1  2  1  0  0  0  0 
  1  3  1  0  0  0  0 
  2  4  1  0  0  0  0 
  2  5  1  0  0  0  0 
  3  6  1  0  0  0  0 
  7  4  1  0  0  0  0 
  8  4  2  0  0  0  0 
  7  9  1  0  0  0  0 
 10  9  1  0  0  0  0 
  9 11  2  0  0  0  0 
 12 10  1  0  0  0  0 
 13 10  2  0  0  0  0 
 14 11  1  0  0  0  0 
 12 15  1  0  0  0  0 
 16 13  1  0  0  0  0 
 13 17  1  0  0  0  0 
 17 14  2  0  0  0  0 
 15 16  1  0  0  0  0 
 15 18  1  0  0  0  0 
 15 19  1  0  0  0  0 
M  END
> <Name>
Carbamic acid, (ethylthio)methyl-, 2,3-dihydro-2,2-dimethyl-7-benzofuranyl ester

> <Source>
Chemidplus3DMolFile

> <Tox>
4.051

> <CAS>
50539-81-6

$$$$

  CDK

 22 23  0  0  0  0  0  0  0  0999 V2000
    8.0386   -2.6588    0.0000 C   0  0  0  0  0  0  0  0  0  0  0  0
    8.0386   -3.9831    0.0000 O   0  0  0  0  0  0  0  0  0  0  0  0
    6.8902   -1.9967    0.0000 C   0  0  0  0  0  0  0  0  0  0  0  0
    9.2077   -1.9967    0.0000 C   0  0  0  0  0  0  0  0  0  0  0  0
    9.2077   -4.6556    0.0000 C   0  0  0  0  0  0  0  0  0  0  0  0
    6.8902   -0.6725    0.0000 C   0  0  0  0  0  0  0  0  0  0  0  0
    9.2077   -0.6725    0.0000 C   0  0  0  0  0  0  0  0  0  0  0  0
   10.3457   -3.9831    0.0000 O   0  0  0  0  0  0  0  0  0  0  0  0
    9.2077   -5.9798    0.0000 C   0  0  0  0  0  0  0  0  0  0  0  0
    8.0386   -0.0000    0.0000 C   0  0  0  0  0  0  0  0  0  0  0  0
    5.7419   -0.0000    0.0000 O   0  0  0  0  0  0  0  0  0  0  0  0
    4.5935   -0.6725    0.0000 C   0  0  0  0  0  0  0  0  0  0  0  0
    4.5935   -1.9967    0.0000 C   0  0  0  0  0  0  0  0  0  0  0  0
    3.4348   -0.0000    0.0000 C   0  0  0  0  0  0  0  0  0  0  0  0
    3.4348   -2.6588    0.0000 C   0  0  0  0  0  0  0  0  0  0  0  0
    5.7419   -2.6588    0.0000 Cl  0  0  0  0  0  0  0  0  0  0  0  0
    2.2864   -0.6725    0.0000 C   0  0  0  0  0  0  0  0  0  0  0  0
    2.2864   -1.9967    0.0000 C   0  0  0  0  0  0  0  0  0  0  0  0
    1.1380   -2.6588    0.0000 C   0  0  0  0  0  0  0  0  0  0  0  0
    0.4759   -1.5001    0.0000 F   0  0  0  0  0  0  0  0  0  0  0  0
    1.8105   -3.8072    0.0000 F   0  0  0  0  0  0  0  0  0  0  0  0
    0.0000   -3.3210    0.0000 F   0  0  0  0  0  0  0  0  0  0  0  0
  1  2  1  0  0  0  0 
  1  3  2  0  0  0  0 
  1  4  1  0  0  0  0 
  2  5  1  0  0  0  0 
  3  6  1  0  0  0  0 
  4  7  2  0  0  0  0 
  5  8  2  0  0  0  0 
  5  9  1  0  0  0  0 
  6 10  2  0  0  0  0 
  6 11  1  0  0  0  0 
  7 10  1  0  0  0  0 
 11 12  1  0  0  0  0 
 12 13  2  0  0  0  0 
 12 14  1  0  0  0  0 
 13 15  1  0  0  0  0 
 13 16  1  0  0  0  0 
 14 17  2  0  0  0  0 
 15 18  2  0  0  0  0 
 17 18  1  0  0  0  0 
 18 19  1  0  0  0  0 
 19 20  1  0  0  0  0 
 19 21  1  0  0  0  0 
 19 22  1  0  0  0  0 
M  END
> <Name>
Phenol, 3-(2-chloro-4-(trifluoromethyl)phenoxy)-, acetate

> <Source>
DSSTox2DMolFile

> <Tox>
2.121

> <CAS>
50594-77-9

$$$$

  CDK

 26 26  0  0  0  0  0  0  0  0999 V2000
   -3.0366    0.0909   -1.4208 C   0  0  0  0  0  0  0  0  0  0  0  0
   -1.8404   -0.3887   -0.8666 N   0  0  0  0  0  0  0  0  0  0  0  0
   -3.1652   -0.2847   -2.9455 C   0  0  0  0  0  0  0  0  0  0  0  0
   -4.2087   -0.5392   -0.6076 C   0  0  0  0  0  0  0  0  0  0  0  0
   -3.0242    1.6358   -1.2055 C   0  0  0  0  0  0  0  0  0  0  0  0
   -0.8090   -0.8224   -1.4986 C   0  0  0  0  0  0  0  0  0  0  0  0
   -1.7868   -0.4880   -3.6593 C   0  0  0  0  0  0  0  0  0  0  0  0
   -0.7545   -0.8580   -2.7951 N   0  0  0  0  0  0  0  0  0  0  0  0
    0.3688   -1.1996   -0.7495 C   0  0  0  0  0  0  0  0  0  0  0  0
   -1.8613   -1.5604   -4.7772 C   0  0  0  0  0  0  0  0  0  0  0  0
    1.2657    0.0431   -0.5314 C   0  0  0  0  0  0  0  0  0  0  0  0
    2.5466   -0.3246    0.2433 C   0  0  0  0  0  0  0  0  0  0  0  0
    3.4366    0.9141    0.4700 C   0  0  0  0  0  0  0  0  0  0  0  0
    4.7071    0.5262    1.2494 C   0  0  0  0  0  0  0  0  0  0  0  0
    5.5992    1.7584    1.4825 C   0  0  0  0  0  0  0  0  0  0  0  0
    6.8636    1.3585    2.2625 C   0  0  0  0  0  0  0  0  0  0  0  0
    7.7570    2.5880    2.4971 C   0  0  0  0  0  0  0  0  0  0  0  0
    9.0189    2.1824    3.2769 C   0  0  0  0  0  0  0  0  0  0  0  0
    9.9151    3.4095    3.5135 C   0  0  0  0  0  0  0  0  0  0  0  0
   11.1764    3.0011    4.2936 C   0  0  0  0  0  0  0  0  0  0  0  0
   12.0776    4.2255    4.5334 C   0  0  0  0  0  0  0  0  0  0  0  0
   13.3406    3.8173    5.3144 C   0  0  0  0  0  0  0  0  0  0  0  0
   14.2508    5.0374    5.5602 C   0  0  0  0  0  0  0  0  0  0  0  0
   15.5161    4.6272    6.3428 C   0  0  0  0  0  0  0  0  0  0  0  0
   16.4434    5.8364    6.6003 C   0  0  0  0  0  0  0  0  0  0  0  0
   17.7051    5.4217    7.3819 C   0  0  0  0  0  0  0  0  0  0  0  0
  1  2  1  0  0  0  0 
  3  1  1  0  0  0  0 
  1  4  1  0  0  0  0 
  1  5  1  0  0  0  0 
  2  6  2  0  0  0  0 
  7  3  1  0  0  0  0 
  6  8  1  0  0  0  0 
  9  6  1  0  0  0  0 
  8  7  1  0  0  0  0 
  7 10  1  0  0  0  0 
 11  9  1  0  0  0  0 
 12 11  1  0  0  0  0 
 13 12  1  0  0  0  0 
 14 13  1  0  0  0  0 
 15 14  1  0  0  0  0 
 16 15  1  0  0  0  0 
 17 16  1  0  0  0  0 
 18 17  1  0  0  0  0 
 19 18  1  0  0  0  0 
 20 19  1  0  0  0  0 
 21 20  1  0  0  0  0 
 22 21  1  0  0  0  0 
 23 22  1  0  0  0  0 
 24 23  1  0  0  0  0 
 25 24  1  0  0  0  0 
 26 25  1  0  0  0  0 
M  END
> <Name>
Pyrimidine, 2-heptadecyl-4,4,6-trimethyltetrahydro-

> <Source>
Other

> <Tox>
2.869

> <CAS>
50602-40-9

$$$$

  CDK

 25 27  0  0  0  0  0  0  0  0999 V2000
   -3.1485   -0.5085    6.7010 Cl  0  0  0  0  0  0  0  0  0  0  0  0
   -4.3608   -0.0715    5.5487 C   0  0  0  0  0  0  0  0  0  0  0  0
   -4.0705   -0.2546    4.1968 C   0  0  0  0  0  0  0  0  0  0  0  0
   -5.5966    0.4496    5.9322 C   0  0  0  0  0  0  0  0  0  0  0  0
   -5.0170    0.0841    3.2338 C   0  0  0  0  0  0  0  0  0  0  0  0
   -6.0161    0.6991    7.5907 Cl  0  0  0  0  0  0  0  0  0  0  0  0
   -6.5420    0.7874    4.9638 C   0  0  0  0  0  0  0  0  0  0  0  0
   -4.6448   -0.1512    1.5006 S   0  0  0  0  0  0  0  0  0  0  0  0
   -6.2516    0.6043    3.6120 C   0  0  0  0  0  0  0  0  0  0  0  0
   -3.9478    1.3735    1.1387 N   0  0  0  0  0  0  0  0  0  0  0  0
   -2.5755    1.6218    1.2661 C   0  0  0  0  0  0  0  0  0  0  0  0
   -4.8491    2.3766    0.5896 C   0  0  0  0  0  0  0  0  0  0  0  0
   -1.8321    0.5473    1.8171 O   0  0  0  0  0  0  0  0  0  0  0  0
   -2.0360    2.6773    0.9340 O   0  0  0  0  0  0  0  0  0  0  0  0
   -0.4989    0.7576    1.9532 C   0  0  0  0  0  0  0  0  0  0  0  0
    0.0317    1.3042    3.1060 C   0  0  0  0  0  0  0  0  0  0  0  0
    0.3827    0.4286    0.9222 C   0  0  0  0  0  0  0  0  0  0  0  0
   -0.7092    1.6733    4.1975 O   0  0  0  0  0  0  0  0  0  0  0  0
    1.3912    1.5189    3.2563 C   0  0  0  0  0  0  0  0  0  0  0  0
    1.7627    0.6445    1.0673 C   0  0  0  0  0  0  0  0  0  0  0  0
    0.2255    2.3659    5.0746 C   0  0  0  0  0  0  0  0  0  0  0  0
    1.6676    2.0617    4.6054 C   0  0  0  0  0  0  0  0  0  0  0  0
    2.2771    1.1905    2.2460 C   0  0  0  0  0  0  0  0  0  0  0  0
   -0.0123    1.8559    6.4968 C   0  0  0  0  0  0  0  0  0  0  0  0
   -0.0887    3.8654    4.9982 C   0  0  0  0  0  0  0  0  0  0  0  0
  1  2  1  0  0  0  0 
  3  2  1  0  0  0  0 
  2  4  2  0  0  0  0 
  5  3  2  0  0  0  0 
  6  4  1  0  0  0  0 
  7  4  1  0  0  0  0 
  8  5  1  0  0  0  0 
  5  9  1  0  0  0  0 
  9  7  2  0  0  0  0 
  8 10  1  0  0  0  0 
 10 11  1  0  0  0  0 
 10 12  1  0  0  0  0 
 13 11  1  0  0  0  0 
 14 11  2  0  0  0  0 
 13 15  1  0  0  0  0 
 16 15  1  0  0  0  0 
 15 17  2  0  0  0  0 
 18 16  1  0  0  0  0 
 19 16  2  0  0  0  0 
 20 17  1  0  0  0  0 
 18 21  1  0  0  0  0 
 22 19  1  0  0  0  0 
 19 23  1  0  0  0  0 
 23 20  2  0  0  0  0 
 21 22  1  0  0  0  0 
 21 24  1  0  0  0  0 
 21 25  1  0  0  0  0 
M  END
> <Name>
Carbamic acid, ((3,4-dichlorophenyl)thio)methyl-, 2,3-dihydro-2,2-dimethyl-7-benzofuranyl ester

> <Source>
Chemidplus3DMolFile

> <Tox>
4.202

> <CAS>
50673-10-4

$$$$

  CDK

 27 29  0  0  0  0  0  0  0  0999 V2000
    0.0000    0.0000    0.0000 C   0  0  0  0  0  0  0  0  0  0  0  0
    0.1800   -0.1600   -1.5000 C   0  0  0  0  0  0  0  0  0  0  0  0
   -1.3200    0.5600    0.3000 N   0  0  0  0  0  0  0  0  0  0  0  0
    1.4400   -0.9400   -1.8600 C   0  0  0  0  0  0  0  0  0  0  0  0
   -2.3800   -0.4200    0.1600 C   0  0  0  0  0  0  0  0  0  0  0  0
   -1.5800    1.7600   -0.5000 C   0  0  0  0  0  0  0  0  0  0  0  0
    2.6000   -0.6000   -0.9600 C   0  0  0  0  0  0  0  0  0  0  0  0
    1.8000   -0.8200   -3.3400 C   0  0  0  0  0  0  0  0  0  0  0  0
    1.3600   -2.3600   -1.4200 C   0  0  0  0  0  0  0  0  0  0  0  0
   -3.7600    0.2000    0.4600 C   0  0  0  0  0  0  0  0  0  0  0  0
   -2.9800    2.3600   -0.1800 C   0  0  0  0  0  0  0  0  0  0  0  0
    2.6000   -1.0800    0.3200 N   0  0  0  0  0  0  0  0  0  0  0  0
    3.5200    0.1000   -1.3400 O   0  0  0  0  0  0  0  0  0  0  0  0
    2.4600    0.5000   -3.6600 C   0  0  0  0  0  0  0  0  0  0  0  0
    2.4600   -3.2400   -1.5200 C   0  0  0  0  0  0  0  0  0  0  0  0
    0.1400   -2.8400   -0.9000 C   0  0  0  0  0  0  0  0  0  0  0  0
   -3.9600    1.3400   -0.3400 O   0  0  0  0  0  0  0  0  0  0  0  0
    3.6000    0.5000   -4.3600 C   0  0  0  0  0  0  0  0  0  0  0  0
    2.3200   -4.6000   -1.1000 C   0  0  0  0  0  0  0  0  0  0  0  0
    3.7000   -2.8000   -2.0400 C   0  0  0  0  0  0  0  0  0  0  0  0
    0.0200   -4.1600   -0.5000 C   0  0  0  0  0  0  0  0  0  0  0  0
    4.4000    1.7800   -4.4400 C   0  0  0  0  0  0  0  0  0  0  0  0
    4.0400   -0.7800   -5.0200 C   0  0  0  0  0  0  0  0  0  0  0  0
    1.1000   -5.0600   -0.6000 C   0  0  0  0  0  0  0  0  0  0  0  0
    3.4000   -5.4800   -1.2000 C   0  0  0  0  0  0  0  0  0  0  0  0
    4.7800   -3.7000   -2.1400 C   0  0  0  0  0  0  0  0  0  0  0  0
    4.6400   -5.0200   -1.7200 C   0  0  0  0  0  0  0  0  0  0  0  0
  1  2  1  0  0  0  0 
  1  3  1  0  0  0  0 
  2  4  1  0  0  0  0 
  3  5  1  0  0  0  0 
  3  6  1  0  0  0  0 
  4  7  1  0  0  0  0 
  4  8  1  0  0  0  0 
  4  9  1  0  0  0  0 
  5 10  1  0  0  0  0 
 11  6  1  0  0  0  0 
  7 12  1  0  0  0  0 
  7 13  2  0  0  0  0 
  8 14  1  0  0  0  0 
  9 15  2  0  0  0  0 
  9 16  1  0  0  0  0 
 10 17  1  0  0  0  0 
 17 11  1  0  0  0  0 
 14 18  2  0  0  0  0 
 15 19  1  0  0  0  0 
 15 20  1  0  0  0  0 
 21 16  2  0  0  0  0 
 18 22  1  0  0  0  0 
 18 23  1  0  0  0  0 
 19 24  2  0  0  0  0 
 19 25  1  0  0  0  0 
 26 20  2  0  0  0  0 
 24 21  1  0  0  0  0 
 25 27  2  0  0  0  0 
 27 26  1  0  0  0  0 
M  END
> <Name>
4-Morpholinebutanamide, alpha-(3-methyl-2-butenyl)-alpha-1-naphthalenyl- (9CI)

> <Source>
NIH3DMolFile

> <Tox>
3.316

> <CAS>
50765-92-9

$$$$

  CDK

 32 33  0  0  0  0  0  0  0  0999 V2000
    0.0000    0.0000    0.0000 C   0  0  0  0  0  0  0  0  0  0  0  0
    1.1400    0.1800    0.8800 N   0  0  0  0  0  0  0  0  0  0  0  0
   -0.0400   -1.4000   -0.5400 C   0  0  0  0  0  0  0  0  0  0  0  0
    1.0000   -0.6600    2.0600 C   0  0  0  0  0  0  0  0  0  0  0  0
    2.3800   -0.1400    0.1800 C   0  0  0  0  0  0  0  0  0  0  0  0
   -1.0200   -2.2200   -0.1200 C   0  0  0  0  0  0  0  0  0  0  0  0
    0.7800    0.2200    3.3000 C   0  0  0  0  0  0  0  0  0  0  0  0
    3.5600    0.3200    0.9800 C   0  0  0  0  0  0  0  0  0  0  0  0
   -1.1600   -3.6600   -0.5200 C   0  0  0  0  0  0  0  0  0  0  0  0
   -2.0600   -1.6600    0.8200 C   0  0  0  0  0  0  0  0  0  0  0  0
   -0.1200   -0.4400    4.3400 C   0  0  0  0  0  0  0  0  0  0  0  0
    4.8000    0.1400    0.4800 C   0  0  0  0  0  0  0  0  0  0  0  0
    0.5200   -0.4800    5.7000 C   0  0  0  0  0  0  0  0  0  0  0  0
   -1.5200    0.1600    4.3800 C   0  0  0  0  0  0  0  0  0  0  0  0
   -0.1400   -1.9200    4.1800 C   0  0  0  0  0  0  0  0  0  0  0  0
    5.9800    0.6200    1.2800 C   0  0  0  0  0  0  0  0  0  0  0  0
    4.9200   -0.5600   -0.8400 C   0  0  0  0  0  0  0  0  0  0  0  0
   -0.0600   -1.2200    6.6800 N   0  0  0  0  0  0  0  0  0  0  0  0
    1.5400    0.1400    5.9400 O   0  0  0  0  0  0  0  0  0  0  0  0
   -1.5200    1.6200    4.7200 C   0  0  0  0  0  0  0  0  0  0  0  0
    1.0200   -2.7000    4.2000 C   0  0  0  0  0  0  0  0  0  0  0  0
   -1.4000   -2.5400    4.0000 C   0  0  0  0  0  0  0  0  0  0  0  0
   -2.2400    2.0600    5.7600 C   0  0  0  0  0  0  0  0  0  0  0  0
    0.9400   -4.1200    4.0400 C   0  0  0  0  0  0  0  0  0  0  0  0
    2.2800   -2.1000    4.4000 C   0  0  0  0  0  0  0  0  0  0  0  0
   -1.4800   -3.9400    3.8400 C   0  0  0  0  0  0  0  0  0  0  0  0
   -2.2200    3.4600    6.3200 C   0  0  0  0  0  0  0  0  0  0  0  0
   -3.1400    1.0600    6.4600 C   0  0  0  0  0  0  0  0  0  0  0  0
   -0.3200   -4.7200    3.8400 C   0  0  0  0  0  0  0  0  0  0  0  0
    2.1000   -4.9000    4.0600 C   0  0  0  0  0  0  0  0  0  0  0  0
    3.4400   -2.9200    4.4200 C   0  0  0  0  0  0  0  0  0  0  0  0
    3.3400   -4.3000    4.2400 C   0  0  0  0  0  0  0  0  0  0  0  0
  1  2  1  0  0  0  0 
  1  3  1  0  0  0  0 
  2  4  1  0  0  0  0 
  2  5  1  0  0  0  0 
  3  6  2  0  0  0  0 
  4  7  1  0  0  0  0 
  8  5  1  0  0  0  0 
  6  9  1  0  0  0  0 
  6 10  1  0  0  0  0 
  7 11  1  0  0  0  0 
 12  8  2  0  0  0  0 
 11 13  1  0  0  0  0 
 11 14  1  0  0  0  0 
 11 15  1  0  0  0  0 
 16 12  1  0  0  0  0 
 12 17  1  0  0  0  0 
 13 18  1  0  0  0  0 
 13 19  2  0  0  0  0 
 14 20  1  0  0  0  0 
 15 21  2  0  0  0  0 
 15 22  1  0  0  0  0 
 20 23  2  0  0  0  0 
 21 24  1  0  0  0  0 
 21 25  1  0  0  0  0 
 26 22  2  0  0  0  0 
 23 27  1  0  0  0  0 
 23 28  1  0  0  0  0 
 24 29  2  0  0  0  0 
 24 30  1  0  0  0  0 
 31 25  2  0  0  0  0 
 29 26  1  0  0  0  0 
 30 32  2  0  0  0  0 
 32 31  1  0  0  0  0 
M  END
> <Name>
1-Naphthaleneacetamide, alpha-(2-(bis(3-methyl-2-butenyl)amino)ethyl)-alpha-(3-methyl-2-butenyl)- (9CI)

> <Source>
NIH3DMolFile

> <Tox>
3.184

> <CAS>
50765-96-3

$$$$

  CDK

 24 26  0  0  0  0  0  0  0  0999 V2000
   -4.7282    0.3450    1.5507 S   0  0  0  0  0  0  0  0  0  0  0  0
   -3.6854   -0.9051    2.0902 N   0  0  0  0  0  0  0  0  0  0  0  0
   -5.1694    1.0772    3.1212 C   0  0  0  0  0  0  0  0  0  0  0  0
   -2.3060   -0.7193    2.2438 C   0  0  0  0  0  0  0  0  0  0  0  0
   -4.3278   -2.1518    2.4817 C   0  0  0  0  0  0  0  0  0  0  0  0
   -4.3970    2.1104    3.6437 C   0  0  0  0  0  0  0  0  0  0  0  0
   -6.2830    0.6101    3.8131 C   0  0  0  0  0  0  0  0  0  0  0  0
   -1.8321    0.5473    1.8171 O   0  0  0  0  0  0  0  0  0  0  0  0
   -1.5471   -1.5699    2.7085 O   0  0  0  0  0  0  0  0  0  0  0  0
   -4.7412    2.6815    4.8689 C   0  0  0  0  0  0  0  0  0  0  0  0
   -6.6273    1.1813    5.0382 C   0  0  0  0  0  0  0  0  0  0  0  0
   -0.4989    0.7576    1.9532 C   0  0  0  0  0  0  0  0  0  0  0  0
   -5.8563    2.2169    5.5661 C   0  0  0  0  0  0  0  0  0  0  0  0
    0.0317    1.3042    3.1060 C   0  0  0  0  0  0  0  0  0  0  0  0
    0.3827    0.4286    0.9222 C   0  0  0  0  0  0  0  0  0  0  0  0
   -6.1870    2.7655    6.7426 F   0  0  0  0  0  0  0  0  0  0  0  0
   -0.7092    1.6733    4.1975 O   0  0  0  0  0  0  0  0  0  0  0  0
    1.3912    1.5189    3.2563 C   0  0  0  0  0  0  0  0  0  0  0  0
    1.7627    0.6445    1.0673 C   0  0  0  0  0  0  0  0  0  0  0  0
    0.2255    2.3659    5.0746 C   0  0  0  0  0  0  0  0  0  0  0  0
    1.6676    2.0617    4.6054 C   0  0  0  0  0  0  0  0  0  0  0  0
    2.2771    1.1905    2.2460 C   0  0  0  0  0  0  0  0  0  0  0  0
   -0.0123    1.8559    6.4968 C   0  0  0  0  0  0  0  0  0  0  0  0
   -0.0887    3.8654    4.9982 C   0  0  0  0  0  0  0  0  0  0  0  0
  1  2  1  0  0  0  0 
  1  3  1  0  0  0  0 
  2  4  1  0  0  0  0 
  2  5  1  0  0  0  0 
  3  6  2  0  0  0  0 
  3  7  1  0  0  0  0 
  8  4  1  0  0  0  0 
  9  4  2  0  0  0  0 
  6 10  1  0  0  0  0 
  7 11  2  0  0  0  0 
  8 12  1  0  0  0  0 
 10 13  2  0  0  0  0 
 11 13  1  0  0  0  0 
 14 12  1  0  0  0  0 
 12 15  2  0  0  0  0 
 16 13  1  0  0  0  0 
 17 14  1  0  0  0  0 
 18 14  2  0  0  0  0 
 19 15  1  0  0  0  0 
 17 20  1  0  0  0  0 
 21 18  1  0  0  0  0 
 18 22  1  0  0  0  0 
 22 19  2  0  0  0  0 
 20 21  1  0  0  0  0 
 20 23  1  0  0  0  0 
 20 24  1  0  0  0  0 
M  END
> <Name>
Carbamic acid, ((4-fluorophenyl)thio)methyl-, 2,3-dihydro-2,2-dimethyl-7-benzofuranyl ester

> <Source>
Chemidplus3DMolFile

> <Tox>
4.143

> <CAS>
50802-69-2

$$$$

  CDK

 13 13  0  0  0  0  0  0  0  0999 V2000
    6.2943    2.1637    0.1782 S   0  0  0  0  0  0  0  0  0  0  0  0
    4.6542    3.1800    0.4483 P   0  0  0  0  0  0  0  0  0  0  0  0
    3.4005    2.8144   -0.5171 O   0  0  0  0  0  0  0  0  0  0  0  0
    4.7537    4.7922    0.2540 O   0  0  0  0  0  0  0  0  0  0  0  0
    3.9640    3.0749    1.9178 O   0  0  0  0  0  0  0  0  0  0  0  0
    2.9750    1.4610   -0.6344 C   0  0  0  0  0  0  0  0  0  0  0  0
    4.9896    5.3327   -1.0352 C   0  0  0  0  0  0  0  0  0  0  0  0
    4.7375    3.3277    3.0786 C   0  0  0  0  0  0  0  0  0  0  0  0
    2.5549    0.9347    0.7374 C   0  0  0  0  0  0  0  0  0  0  0  0
    1.8340    1.3679   -1.6464 C   0  0  0  0  0  0  0  0  0  0  0  0
    1.9981   -0.4824    0.6484 C   0  0  0  0  0  0  0  0  0  0  0  0
    1.2772   -0.0492   -1.7356 C   0  0  0  0  0  0  0  0  0  0  0  0
    0.8595   -0.5761   -0.3646 C   0  0  0  0  0  0  0  0  0  0  0  0
  1  2  2  0  0  0  0 
  2  3  1  0  0  0  0 
  2  4  1  0  0  0  0 
  2  5  1  0  0  0  0 
  3  6  1  0  0  0  0 
  4  7  1  0  0  0  0 
  5  8  1  0  0  0  0 
  6  9  1  0  0  0  0 
  6 10  1  0  0  0  0 
  9 11  1  0  0  0  0 
 10 12  1  0  0  0  0 
 11 13  1  0  0  0  0 
 12 13  1  0  0  0  0 
M  END
> <Name>
Phosphorothioic acid, O-cyclohexyl O,O-dimethyl ester

> <Source>
Chemidplus3DMolFile

> <Tox>
1.888

> <CAS>
50915-31-6

$$$$

  CDK

 15 17  0  0  0  0  0  0  0  0999 V2000
   -0.4707    1.2505    0.0000 O   0  0  0  0  0  0  0  0  0  0  0  0
    0.3589    1.2820    0.0000 C   0  0  0  0  0  0  0  0  0  0  0  0
    1.0478    0.8046    0.0000 O   0  0  0  0  0  0  0  0  0  0  0  0
    0.5207    2.0849    0.0000 C   0  0  0  0  0  0  0  0  0  0  0  0
    1.1252   -0.0604    0.0000 C   0  0  0  0  0  0  0  0  0  0  0  0
   -0.2019    2.4794    0.0000 C   0  0  0  0  0  0  0  0  0  0  0  0
    0.3137   -0.3673    0.0000 C   0  0  0  0  0  0  0  0  0  0  0  0
    1.6087   -0.7197    0.0000 C   0  0  0  0  0  0  0  0  0  0  0  0
   -0.4864   -0.1234    0.0000 C   0  0  0  0  0  0  0  0  0  0  0  0
    0.3137   -1.1642    0.0000 C   0  0  0  0  0  0  0  0  0  0  0  0
    1.1365   -1.3982    0.0000 C   0  0  0  0  0  0  0  0  0  0  0  0
   -1.2649   -0.2636    0.0000 C   0  0  0  0  0  0  0  0  0  0  0  0
   -1.0856   -0.7421    0.0000 C   0  0  0  0  0  0  0  0  0  0  0  0
   -0.5246   -1.3942    0.0000 C   0  0  0  0  0  0  0  0  0  0  0  0
   -1.3217   -1.1908    0.0000 C   0  0  0  0  0  0  0  0  0  0  0  0
  1  2  2  0  0  0  0 
  2  3  1  0  0  0  0 
  2  4  1  0  0  0  0 
  3  5  1  0  0  0  0 
  4  6  2  0  0  0  0 
  5  7  1  0  0  0  0 
  5  8  1  0  0  0  0 
  7  9  1  0  0  0  0 
  7 10  1  0  0  0  0 
 11  8  2  0  0  0  0 
  9 12  1  0  0  0  0 
  9 13  1  0  0  0  0 
 14 10  1  0  0  0  0 
 10 11  1  0  0  0  0 
 12 15  2  0  0  0  0 
 14 13  1  0  0  0  0 
 15 14  1  0  0  0  0 
M  END
> <Name>
2-Propenoic acid, 3a,4,7,7a-tetrahydro-4,7-methano-1H-indenyl ester

> <Source>
Smiles

> <Tox>
1.265

> <CAS>
50976-02-8

$$$$

  CDK

 20 19  0  0  0  0  0  0  0  0999 V2000
   -1.1650   -2.9540    0.7273 S   0  0  0  0  0  0  0  0  0  0  0  0
   -2.3578   -3.5629   -0.4847 C   0  0  0  0  0  0  0  0  0  0  0  0
   -1.9701   -1.4738    1.2767 C   0  0  0  0  0  0  0  0  0  0  0  0
   -2.5974   -2.6415   -1.6930 C   0  0  0  0  0  0  0  0  0  0  0  0
   -3.1977   -1.4146    1.2901 O   0  0  0  0  0  0  0  0  0  0  0  0
   -1.1302   -0.4301    1.6971 N   0  0  0  0  0  0  0  0  0  0  0  0
   -3.6974   -3.1585   -2.6226 C   0  0  0  0  0  0  0  0  0  0  0  0
   -1.3177   -2.3549   -2.4815 C   0  0  0  0  0  0  0  0  0  0  0  0
   -1.6470    0.8388    2.1958 C   0  0  0  0  0  0  0  0  0  0  0  0
    0.3297   -0.5348    1.6676 C   0  0  0  0  0  0  0  0  0  0  0  0
   -1.8381    1.8532    1.0809 C   0  0  0  0  0  0  0  0  0  0  0  0
    0.8664   -1.0960    2.9734 C   0  0  0  0  0  0  0  0  0  0  0  0
   -2.7796    1.4016    0.0917 N   0  0  0  0  0  0  0  0  0  0  0  0
   -4.1365    1.6484    0.1538 C   0  0  0  0  0  0  0  0  0  0  0  0
   -4.9489    0.9339   -1.2359 S   0  0  0  0  0  0  0  0  0  0  0  0
   -4.7279    2.2675    1.0287 O   0  0  0  0  0  0  0  0  0  0  0  0
   -6.6594    1.4030   -0.8961 C   0  0  0  0  0  0  0  0  0  0  0  0
   -7.6980    0.8805   -1.9035 C   0  0  0  0  0  0  0  0  0  0  0  0
   -9.1086    1.4039   -1.6246 C   0  0  0  0  0  0  0  0  0  0  0  0
   -7.7023   -0.6458   -2.0111 C   0  0  0  0  0  0  0  0  0  0  0  0
  1  2  1  0  0  0  0 
  1  3  1  0  0  0  0 
  4  2  1  0  0  0  0 
  5  3  2  0  0  0  0 
  6  3  1  0  0  0  0 
  4  7  1  0  0  0  0 
  4  8  1  0  0  0  0 
  6  9  1  0  0  0  0 
  6 10  1  0  0  0  0 
  9 11  1  0  0  0  0 
 10 12  1  0  0  0  0 
 13 11  1  0  0  0  0 
 13 14  1  0  0  0  0 
 15 14  1  0  0  0  0 
 16 14  2  0  0  0  0 
 15 17  1  0  0  0  0 
 18 17  1  0  0  0  0 
 18 19  1  0  0  0  0 
 18 20  1  0  0  0  0 
M  END
> <Name>
Carbamothioic acid, ethyl(2-((((2-methylpropyl)thio)carbonyl)amino)ethyl)-, S-(2-methylpropyl) ester

> <Source>
Chemidplus3DMolFile

> <Tox>
2.073

> <CAS>
51122-73-7

$$$$

  CDK

 19 19  0  0  0  0  0  0  0  0999 V2000
    3.9875   -4.6095    0.0000 N   0  0  0  0  0  0  0  0  0  0  0  0
    2.6607   -4.6095    0.0000 C   0  0  0  0  0  0  0  0  0  0  0  0
    4.6579   -5.7567    0.0000 C   0  0  0  0  0  0  0  0  0  0  0  0
    4.6579   -3.4554    0.0000 C   0  0  0  0  0  0  0  0  0  0  0  0
    1.9972   -5.7567    0.0000 C   0  0  0  0  0  0  0  0  0  0  0  0
    1.9972   -3.4554    0.0000 C   0  0  0  0  0  0  0  0  0  0  0  0
    3.9875   -6.9108    0.0000 O   0  0  0  0  0  0  0  0  0  0  0  0
    5.9848   -5.7567    0.0000 C   0  0  0  0  0  0  0  0  0  0  0  0
    3.9875   -2.3013    0.0000 C   0  0  0  0  0  0  0  0  0  0  0  0
    5.9848   -3.4554    0.0000 C   0  0  0  0  0  0  0  0  0  0  0  0
    0.6634   -5.7567    0.0000 C   0  0  0  0  0  0  0  0  0  0  0  0
    2.6607   -6.9108    0.0000 C   0  0  0  0  0  0  0  0  0  0  0  0
    0.6634   -3.4554    0.0000 C   0  0  0  0  0  0  0  0  0  0  0  0
    2.6607   -2.3013    0.0000 C   0  0  0  0  0  0  0  0  0  0  0  0
    6.6482   -4.6095    0.0000 Cl  0  0  0  0  0  0  0  0  0  0  0  0
    4.6579   -1.1541    0.0000 O   0  0  0  0  0  0  0  0  0  0  0  0
    0.0000   -4.6095    0.0000 C   0  0  0  0  0  0  0  0  0  0  0  0
    1.9972   -1.1541    0.0000 C   0  0  0  0  0  0  0  0  0  0  0  0
    3.9875   -0.0000    0.0000 C   0  0  0  0  0  0  0  0  0  0  0  0
  1  2  1  0  0  0  0 
  1  3  1  0  0  0  0 
  1  4  1  0  0  0  0 
  2  5  1  0  0  0  0 
  2  6  2  0  0  0  0 
  3  7  2  0  0  0  0 
  3  8  1  0  0  0  0 
  4  9  1  0  0  0  0 
  4 10  1  0  0  0  0 
  5 11  2  0  0  0  0 
  5 12  1  0  0  0  0 
 13  6  1  0  0  0  0 
  6 14  1  0  0  0  0 
  8 15  1  0  0  0  0 
  9 16  1  0  0  0  0 
 11 17  1  0  0  0  0 
 17 13  2  0  0  0  0 
 14 18  1  0  0  0  0 
 16 19  1  0  0  0  0 
M  END
> <Name>
Acetamide, 2-chloro-N-(2-ethyl-6-methylphenyl)-N-(2-methoxy-1-methylethyl)-

> <Source>
DSSTox2DMolFile

> <Tox>
2.111

> <CAS>
51218-45-2

$$$$

  CDK

 23 23  0  0  0  0  0  0  0  0999 V2000
    7.2760    3.4981    0.0000 P   0  0  0  0  0  0  0  0  0  0  0  0
    7.2760    4.8973    0.0000 O   0  0  0  0  0  0  0  0  0  0  0  0
    6.0633    2.7984    0.0000 C   0  0  0  0  0  0  0  0  0  0  0  0
    8.6285    3.1249    0.0000 O   0  0  0  0  0  0  0  0  0  0  0  0
    8.2554    2.5186    0.0000 O   0  0  0  0  0  0  0  0  0  0  0  0
    4.8506    3.4981    0.0000 N   0  0  0  0  0  0  0  0  0  0  0  0
    4.8506    2.0988    0.0000 C   0  0  0  0  0  0  0  0  0  0  0  0
    7.2760    2.0988    0.0000 C   0  0  0  0  0  0  0  0  0  0  0  0
    9.6080    4.1044    0.0000 C   0  0  0  0  0  0  0  0  0  0  0  0
    9.6080    2.8917    0.0000 C   0  0  0  0  0  0  0  0  0  0  0  0
    3.6380    2.7984    0.0000 C   0  0  0  0  0  0  0  0  0  0  0  0
    4.8506    0.6996    0.0000 C   0  0  0  0  0  0  0  0  0  0  0  0
    7.2760    0.6996    0.0000 C   0  0  0  0  0  0  0  0  0  0  0  0
   10.9606    3.7779    0.0000 C   0  0  0  0  0  0  0  0  0  0  0  0
   10.5875    1.8656    0.0000 C   0  0  0  0  0  0  0  0  0  0  0  0
    2.4253    3.4981    0.0000 C   0  0  0  0  0  0  0  0  0  0  0  0
    6.0633    0.0000    0.0000 C   0  0  0  0  0  0  0  0  0  0  0  0
   11.9400    4.7574    0.0000 C   0  0  0  0  0  0  0  0  0  0  0  0
   11.9400    2.2388    0.0000 C   0  0  0  0  0  0  0  0  0  0  0  0
    1.2127    2.7984    0.0000 C   0  0  0  0  0  0  0  0  0  0  0  0
   13.2926    4.3842    0.0000 C   0  0  0  0  0  0  0  0  0  0  0  0
   12.9661    1.2593    0.0000 C   0  0  0  0  0  0  0  0  0  0  0  0
    0.0000    3.4981    0.0000 C   0  0  0  0  0  0  0  0  0  0  0  0
  1  2  2  0  0  0  0 
  1  3  1  0  0  0  0 
  1  4  1  0  0  0  0 
  1  5  1  0  0  0  0 
  3  6  1  0  0  0  0 
  3  7  1  0  0  0  0 
  3  8  1  0  0  0  0 
  4  9  1  0  0  0  0 
  5 10  1  0  0  0  0 
  6 11  1  0  0  0  0 
  7 12  1  0  0  0  0 
 13  8  1  0  0  0  0 
  9 14  1  0  0  0  0 
 10 15  1  0  0  0  0 
 11 16  1  0  0  0  0 
 12 17  1  0  0  0  0 
 17 13  1  0  0  0  0 
 14 18  1  0  0  0  0 
 15 19  1  0  0  0  0 
 16 20  1  0  0  0  0 
 18 21  1  0  0  0  0 
 19 22  1  0  0  0  0 
 20 23  1  0  0  0  0 
M  END
> <Name>
Phosphonic acid, 1-(butylamino)cyclohexyl-, dibutyl ester

> <Source>
IndexNet2DMolFile

> <Tox>
2.064

> <CAS>
51249-05-9

$$$$

  CDK

 25 26  0  0  0  0  0  0  0  0999 V2000
   -3.4600    0.7594    3.5998 S   0  0  0  0  0  0  0  0  0  0  0  0
   -4.8569    0.4428    5.1730 P   0  0  0  0  0  0  0  0  0  0  0  0
   -4.1865   -0.0310    2.1515 C   0  0  0  0  0  0  0  0  0  0  0  0
   -6.7324    0.9382    4.8786 S   0  0  0  0  0  0  0  0  0  0  0  0
   -4.6995   -1.1151    5.6449 O   0  0  0  0  0  0  0  0  0  0  0  0
   -4.2324    1.1475    6.5100 O   0  0  0  0  0  0  0  0  0  0  0  0
   -4.3896   -1.4501    2.3884 N   0  0  0  0  0  0  0  0  0  0  0  0
   -3.4202   -1.6467    5.9478 C   0  0  0  0  0  0  0  0  0  0  0  0
   -4.1425    2.5598    6.6006 C   0  0  0  0  0  0  0  0  0  0  0  0
   -5.6084   -1.7726    2.9137 N   0  0  0  0  0  0  0  0  0  0  0  0
   -3.4112   -2.3856    2.0878 C   0  0  0  0  0  0  0  0  0  0  0  0
   -3.5595   -3.1218    6.2918 C   0  0  0  0  0  0  0  0  0  0  0  0
   -2.8065   -0.8535    7.0914 C   0  0  0  0  0  0  0  0  0  0  0  0
   -3.3220    3.0854    5.4325 C   0  0  0  0  0  0  0  0  0  0  0  0
   -3.5285    2.9375    7.9399 C   0  0  0  0  0  0  0  0  0  0  0  0
   -5.8647   -3.0205    3.1460 C   0  0  0  0  0  0  0  0  0  0  0  0
   -2.3102   -2.1265    1.6028 O   0  0  0  0  0  0  0  0  0  0  0  0
   -3.7359   -3.7959    2.3885 C   0  0  0  0  0  0  0  0  0  0  0  0
   -7.1899   -3.3860    3.7132 C   0  0  0  0  0  0  0  0  0  0  0  0
   -4.9178   -4.1263    2.9034 C   0  0  0  0  0  0  0  0  0  0  0  0
   -7.3066   -4.4976    4.5449 C   0  0  0  0  0  0  0  0  0  0  0  0
   -8.3107   -2.6156    3.4107 C   0  0  0  0  0  0  0  0  0  0  0  0
   -8.5498   -4.8406    5.0766 C   0  0  0  0  0  0  0  0  0  0  0  0
   -9.5538   -2.9584    3.9424 C   0  0  0  0  0  0  0  0  0  0  0  0
   -9.6733   -4.0709    4.7753 C   0  0  0  0  0  0  0  0  0  0  0  0
  1  2  1  0  0  0  0 
  1  3  1  0  0  0  0 
  4  2  2  0  0  0  0 
  2  5  1  0  0  0  0 
  2  6  1  0  0  0  0 
  7  3  1  0  0  0  0 
  5  8  1  0  0  0  0 
  6  9  1  0  0  0  0 
  7 10  1  0  0  0  0 
  7 11  1  0  0  0  0 
  8 12  1  0  0  0  0 
  8 13  1  0  0  0  0 
  9 14  1  0  0  0  0 
  9 15  1  0  0  0  0 
 10 16  2  0  0  0  0 
 17 11  2  0  0  0  0 
 11 18  1  0  0  0  0 
 16 19  1  0  0  0  0 
 16 20  1  0  0  0  0 
 20 18  2  0  0  0  0 
 19 21  2  0  0  0  0 
 19 22  1  0  0  0  0 
 21 23  1  0  0  0  0 
 22 24  2  0  0  0  0 
 23 25  2  0  0  0  0 
 24 25  1  0  0  0  0 
M  END
> <Name>
Phosphorodithioic acid, O,O-diisopropyl ester, S-ester with 2-(mercaptomethyl)-6-phenyl-3(2H)-pyridazinone

> <Source>
Chemidplus3DMolFile

> <Tox>
1.202

> <CAS>
51356-16-2

$$$$

  CDK

 34 38  0  0  0  0  0  0  0  0999 V2000
    0.0000    0.0000    0.0000 C   0  0  0  0  0  0  0  0  0  0  0  0
   -0.0800    0.0400    1.5400 C   0  0  0  0  0  0  0  0  0  0  0  0
   -1.4000   -0.5800    2.0000 C   0  0  0  0  0  0  0  0  0  0  0  0
    0.1000    1.4800    2.0800 C   0  0  0  0  0  0  0  0  0  0  0  0
    0.9800   -0.7800    2.0600 O   0  0  0  0  0  0  0  0  0  0  0  0
    1.5000    2.0400    1.7400 C   0  0  0  0  0  0  0  0  0  0  0  0
   -0.9800    2.3800    1.6400 C   0  0  0  0  0  0  0  0  0  0  0  0
    2.2600   -0.3400    2.0800 C   0  0  0  0  0  0  0  0  0  0  0  0
    2.6000    1.0400    1.9000 C   0  0  0  0  0  0  0  0  0  0  0  0
    1.8000    3.2800    2.5200 C   0  0  0  0  0  0  0  0  0  0  0  0
   -2.1200    2.5800    2.4600 C   0  0  0  0  0  0  0  0  0  0  0  0
   -0.9000    3.0400    0.4000 C   0  0  0  0  0  0  0  0  0  0  0  0
    3.2600   -1.3000    2.2800 C   0  0  0  0  0  0  0  0  0  0  0  0
    3.9600    1.4000    1.8600 C   0  0  0  0  0  0  0  0  0  0  0  0
    2.2400    4.4400    1.8800 C   0  0  0  0  0  0  0  0  0  0  0  0
    1.6200    3.2800    3.9200 C   0  0  0  0  0  0  0  0  0  0  0  0
   -3.1400    3.4400    2.0200 C   0  0  0  0  0  0  0  0  0  0  0  0
   -1.9400    3.8800   -0.0400 C   0  0  0  0  0  0  0  0  0  0  0  0
    4.6200   -0.9200    2.2800 C   0  0  0  0  0  0  0  0  0  0  0  0
    4.9600    0.4200    2.0600 C   0  0  0  0  0  0  0  0  0  0  0  0
    2.5200    5.6000    2.6200 C   0  0  0  0  0  0  0  0  0  0  0  0
    1.8800    4.4200    4.6600 C   0  0  0  0  0  0  0  0  0  0  0  0
   -3.0600    4.0800    0.7800 C   0  0  0  0  0  0  0  0  0  0  0  0
    5.5600   -1.8200    2.4600 O   0  0  0  0  0  0  0  0  0  0  0  0
    2.3400    5.6000    4.0200 C   0  0  0  0  0  0  0  0  0  0  0  0
    6.8800   -1.4800    2.0800 C   0  0  0  0  0  0  0  0  0  0  0  0
    2.6000    6.6800    4.7200 O   0  0  0  0  0  0  0  0  0  0  0  0
    1.8200    6.9200    5.8800 C   0  0  0  0  0  0  0  0  0  0  0  0
    1.8600    8.4000    6.2400 C   0  0  0  0  0  0  0  0  0  0  0  0
    0.7400    8.7600    7.1000 N   0  0  0  0  0  0  0  0  0  0  0  0
    0.4600   10.2000    7.1200 C   0  0  0  0  0  0  0  0  0  0  0  0
    0.9000    8.3400    8.5000 C   0  0  0  0  0  0  0  0  0  0  0  0
   -0.0400   10.5000    8.5400 C   0  0  0  0  0  0  0  0  0  0  0  0
    0.8600    9.5800    9.3600 C   0  0  0  0  0  0  0  0  0  0  0  0
  1  2  1  0  0  0  0 
  2  3  1  0  0  0  0 
  2  4  1  0  0  0  0 
  2  5  1  0  0  0  0 
  4  6  1  0  0  0  0 
  4  7  1  0  0  0  0 
  8  5  1  0  0  0  0 
  6  9  1  0  0  0  0 
  6 10  1  0  0  0  0 
  7 11  2  0  0  0  0 
  7 12  1  0  0  0  0 
 13  8  2  0  0  0  0 
  9  8  1  0  0  0  0 
  9 14  2  0  0  0  0 
 15 10  2  0  0  0  0 
 10 16  1  0  0  0  0 
 11 17  1  0  0  0  0 
 18 12  2  0  0  0  0 
 19 13  1  0  0  0  0 
 14 20  1  0  0  0  0 
 21 15  1  0  0  0  0 
 22 16  2  0  0  0  0 
 17 23  2  0  0  0  0 
 23 18  1  0  0  0  0 
 20 19  2  0  0  0  0 
 19 24  1  0  0  0  0 
 25 21  2  0  0  0  0 
 25 22  1  0  0  0  0 
 26 24  1  0  0  0  0 
 27 25  1  0  0  0  0 
 28 27  1  0  0  0  0 
 28 29  1  0  0  0  0 
 29 30  1  0  0  0  0 
 30 31  1  0  0  0  0 
 30 32  1  0  0  0  0 
 31 33  1  0  0  0  0 
 34 32  1  0  0  0  0 
 33 34  1  0  0  0  0 
M  END
> <Name>
Pyrrolidine, 1-(2-(4-(3,4-dihydro-7-methoxy-2,2-dimethyl-3-phenyl-2H-1-benzopyran-4-yl)phenoxy)ethyl)-, cis-

> <Source>
NIH3DMolFile

> <Tox>
2.359

> <CAS>
51423-20-2

$$$$

  CDK

 15 15  0  0  0  0  0  0  0  0999 V2000
   -2.7451    0.7247    0.6976 C   0  0  0  0  0  0  0  0  0  0  0  0
   -2.5173   -0.5594    0.1719 C   0  0  0  0  0  0  0  0  0  0  0  0
   -3.5709    1.6398    0.0263 C   0  0  0  0  0  0  0  0  0  0  0  0
   -2.1314    1.0430    1.8788 O   0  0  0  0  0  0  0  0  0  0  0  0
   -3.1358   -0.8994   -1.0326 C   0  0  0  0  0  0  0  0  0  0  0  0
   -1.6539   -1.5785    0.8582 C   0  0  0  0  0  0  0  0  0  0  0  0
   -4.1672    1.2731   -1.1718 C   0  0  0  0  0  0  0  0  0  0  0  0
   -3.9505    0.0055   -1.7019 C   0  0  0  0  0  0  0  0  0  0  0  0
   -0.3221   -1.7598    0.2359 N   0  0  0  0  0  0  0  0  0  0  0  0
    0.6537   -0.6870    0.5583 C   0  0  0  0  0  0  0  0  0  0  0  0
    1.9910   -0.9774   -0.1238 C   0  0  0  0  0  0  0  0  0  0  0  0
    2.9929    0.0472    0.2646 N   0  0  0  0  0  0  0  0  0  0  0  0
    4.3053   -0.1557   -0.3948 C   0  0  0  0  0  0  0  0  0  0  0  0
    5.2615    0.9892   -0.0465 C   0  0  0  0  0  0  0  0  0  0  0  0
    6.6227    0.8147   -0.5823 N   0  0  0  0  0  0  0  0  0  0  0  0
  1  2  1  0  0  0  0 
  1  3  2  0  0  0  0 
  1  4  1  0  0  0  0 
  2  5  2  0  0  0  0 
  2  6  1  0  0  0  0 
  7  3  1  0  0  0  0 
  5  8  1  0  0  0  0 
  6  9  1  0  0  0  0 
  8  7  2  0  0  0  0 
  9 10  1  0  0  0  0 
 10 11  1  0  0  0  0 
 11 12  1  0  0  0  0 
 12 13  1  0  0  0  0 
 13 14  1  0  0  0  0 
 14 15  1  0  0  0  0 
M  END
> <Name>
Phenol, (((2-((2-aminoethyl)amino)ethyl)amino)methyl)-

> <Source>
DougDB3DMolFile

> <Tox>
1.959

> <CAS>
51505-90-9

$$$$

  CDK

  7  6  0  0  0  0  0  0  0  0999 V2000
   -4.4883    5.0268    1.7993 S   0  0  0  0  0  0  0  0  0  0  0  0
   -4.0073    3.6633    0.6950 C   0  0  0  0  0  0  0  0  0  0  0  0
   -2.5194    3.3454    0.7969 C   0  0  0  0  0  0  0  0  0  0  0  0
   -2.0689    2.1828   -0.0748 C   0  0  0  0  0  0  0  0  0  0  0  0
   -2.8353    1.5361   -0.7837 O   0  0  0  0  0  0  0  0  0  0  0  0
   -0.7096    1.9402    0.0588 N   0  0  0  0  0  0  0  0  0  0  0  0
   -0.0333    0.8725   -0.6407 C   0  0  0  0  0  0  0  0  0  0  0  0
  1  2  1  0  0  0  0 
  3  2  1  0  0  0  0 
  3  4  1  0  0  0  0 
  5  4  2  0  0  0  0 
  6  4  1  0  0  0  0 
  6  7  1  0  0  0  0 
M  END
> <Name>
Propanamide, 3-mercapto-N-methyl-

> <Source>
Chemidplus3DMolFile

> <Tox>
2.213

> <CAS>
52334-99-3

$$$$

  CDK

 19 20  0  0  0  0  0  0  0  0999 V2000
    7.0000    2.4249    0.0000 C   0  0  0  0  0  0  0  0  0  0  0  0
    6.3000    1.2124    0.0000 C   0  0  0  0  0  0  0  0  0  0  0  0
    6.3000    3.6373    0.0000 C   0  0  0  0  0  0  0  0  0  0  0  0
    8.4000    2.4249    0.0000 C   0  0  0  0  0  0  0  0  0  0  0  0
    4.9000    1.2124    0.0000 C   0  0  0  0  0  0  0  0  0  0  0  0
    4.9000    3.6373    0.0000 C   0  0  0  0  0  0  0  0  0  0  0  0
    9.1000    3.6373    0.0000 C   0  0  0  0  0  0  0  0  0  0  0  0
    9.1000    1.2124    0.0000 C   0  0  0  0  0  0  0  0  0  0  0  0
    4.2000    2.4249    0.0000 C   0  0  0  0  0  0  0  0  0  0  0  0
   10.5000    3.6373    0.0000 C   0  0  0  0  0  0  0  0  0  0  0  0
    8.4000    4.8497    0.0000 F   0  0  0  0  0  0  0  0  0  0  0  0
   10.5000    1.2124    0.0000 C   0  0  0  0  0  0  0  0  0  0  0  0
    2.8000    2.4249    0.0000 C   0  0  0  0  0  0  0  0  0  0  0  0
   11.2000    2.4249    0.0000 C   0  0  0  0  0  0  0  0  0  0  0  0
    2.1000    1.2124    0.0000 C   0  0  0  0  0  0  0  0  0  0  0  0
    2.1000    3.6373    0.0000 C   0  0  0  0  0  0  0  0  0  0  0  0
    0.7000    1.2124    0.0000 C   0  0  0  0  0  0  0  0  0  0  0  0
    0.0000    0.0000    0.0000 O   0  0  0  0  0  0  0  0  0  0  0  0
    0.0000    2.4249    0.0000 O   0  0  0  0  0  0  0  0  0  0  0  0
  1  2  1  0  0  0  0 
  1  3  2  0  0  0  0 
  1  4  1  0  0  0  0 
  2  5  2  0  0  0  0 
  6  3  1  0  0  0  0 
  4  7  1  0  0  0  0 
  4  8  2  0  0  0  0 
  5  9  1  0  0  0  0 
  9  6  2  0  0  0  0 
  7 10  2  0  0  0  0 
  7 11  1  0  0  0  0 
 12  8  1  0  0  0  0 
  9 13  1  0  0  0  0 
 10 14  1  0  0  0  0 
 14 12  2  0  0  0  0 
 15 13  1  0  0  0  0 
 13 16  1  0  0  0  0 
 17 15  1  0  0  0  0 
 17 18  2  0  0  0  0 
 17 19  1  0  0  0  0 
M  END
> <Name>
(1,1-Biphenyl)-4-propanoic acid, 2'-fluoro-beta-methyl-

> <Source>
Name2DMolFile

> <Tox>
2.680

> <CAS>
52449-66-8

$$$$

  CDK

 20 21  0  0  0  0  0  0  0  0999 V2000
    0.0000    0.0000    0.0000 O   0  0  0  0  0  0  0  0  0  0  0  0
   -1.1600   -0.1200    0.2600 C   0  0  0  0  0  0  0  0  0  0  0  0
   -1.8400   -1.4600    0.2000 C   0  0  0  0  0  0  0  0  0  0  0  0
   -2.0000    1.0600    0.6400 C   0  0  0  0  0  0  0  0  0  0  0  0
   -1.9000   -2.1400   -1.0200 C   0  0  0  0  0  0  0  0  0  0  0  0
   -2.3800   -2.0200    1.3600 C   0  0  0  0  0  0  0  0  0  0  0  0
   -3.3600    0.9200    0.8800 C   0  0  0  0  0  0  0  0  0  0  0  0
   -1.4000    2.3400    0.7400 C   0  0  0  0  0  0  0  0  0  0  0  0
   -2.5400   -3.4000   -1.0800 C   0  0  0  0  0  0  0  0  0  0  0  0
   -3.0200   -3.2800    1.3000 C   0  0  0  0  0  0  0  0  0  0  0  0
   -2.3200   -1.3600    2.5200 O   0  0  0  0  0  0  0  0  0  0  0  0
   -4.1400    2.0400    1.2400 C   0  0  0  0  0  0  0  0  0  0  0  0
   -2.1600    3.4600    1.1000 C   0  0  0  0  0  0  0  0  0  0  0  0
   -3.0800   -3.9600    0.0800 C   0  0  0  0  0  0  0  0  0  0  0  0
   -3.5400   -3.8000    2.4000 O   0  0  0  0  0  0  0  0  0  0  0  0
   -3.5400    3.3000    1.3400 C   0  0  0  0  0  0  0  0  0  0  0  0
   -5.4400    1.8800    1.4800 O   0  0  0  0  0  0  0  0  0  0  0  0
   -1.6000    4.6400    1.2000 O   0  0  0  0  0  0  0  0  0  0  0  0
   -3.6800   -5.1400    0.0200 O   0  0  0  0  0  0  0  0  0  0  0  0
   -4.2800    4.3600    1.6800 O   0  0  0  0  0  0  0  0  0  0  0  0
  1  2  2  0  0  0  0 
  2  3  1  0  0  0  0 
  2  4  1  0  0  0  0 
  3  5  2  0  0  0  0 
  3  6  1  0  0  0  0 
  7  4  1  0  0  0  0 
  4  8  2  0  0  0  0 
  5  9  1  0  0  0  0 
 10  6  2  0  0  0  0 
  6 11  1  0  0  0  0 
 12  7  2  0  0  0  0 
 13  8  1  0  0  0  0 
  9 14  2  0  0  0  0 
 14 10  1  0  0  0  0 
 10 15  1  0  0  0  0 
 16 12  1  0  0  0  0 
 12 17  1  0  0  0  0 
 18 13  1  0  0  0  0 
 13 16  2  0  0  0  0 
 14 19  1  0  0  0  0 
 16 20  1  0  0  0  0 
M  END
> <Name>
Methanone, (2,3,4-trihydroxyphenyl)(3,4,5-trihydroxyphenyl)-

> <Source>
NIH3DMolFile

> <Tox>
2.291

> <CAS>
52479-85-3

$$$$

  CDK

 19 21  0  0  0  0  0  0  0  0999 V2000
   10.3591   -1.9993    0.0000 C   0  0  0  0  0  0  0  0  0  0  0  0
   10.3591   -3.3253    0.0000 C   0  0  0  0  0  0  0  0  0  0  0  0
    9.2092   -1.3260    0.0000 C   0  0  0  0  0  0  0  0  0  0  0  0
    9.2092   -3.9882    0.0000 N   0  0  0  0  0  0  0  0  0  0  0  0
    8.0594   -1.9993    0.0000 C   0  0  0  0  0  0  0  0  0  0  0  0
    8.0594   -3.3253    0.0000 C   0  0  0  0  0  0  0  0  0  0  0  0
    6.9095   -1.3260    0.0000 C   0  0  0  0  0  0  0  0  0  0  0  0
    6.9095   -3.9882    0.0000 O   0  0  0  0  0  0  0  0  0  0  0  0
    5.7596   -1.9993    0.0000 C   0  0  0  0  0  0  0  0  0  0  0  0
    5.7596   -3.3253    0.0000 C   0  0  0  0  0  0  0  0  0  0  0  0
    4.5994   -1.3260    0.0000 C   0  0  0  0  0  0  0  0  0  0  0  0
    4.5994   -3.9882    0.0000 C   0  0  0  0  0  0  0  0  0  0  0  0
    3.4496   -1.9993    0.0000 C   0  0  0  0  0  0  0  0  0  0  0  0
    3.4496   -3.3253    0.0000 C   0  0  0  0  0  0  0  0  0  0  0  0
    2.2997   -1.3260    0.0000 C   0  0  0  0  0  0  0  0  0  0  0  0
    2.2997   -0.0000    0.0000 C   0  0  0  0  0  0  0  0  0  0  0  0
    1.1499   -1.9993    0.0000 C   0  0  0  0  0  0  0  0  0  0  0  0
    1.1499   -3.3253    0.0000 O   0  0  0  0  0  0  0  0  0  0  0  0
    0.0000   -1.3260    0.0000 O   0  0  0  0  0  0  0  0  0  0  0  0
  1  2  2  0  0  0  0 
  1  3  1  0  0  0  0 
  2  4  1  0  0  0  0 
  5  3  2  0  0  0  0 
  4  6  2  0  0  0  0 
  6  5  1  0  0  0  0 
  5  7  1  0  0  0  0 
  6  8  1  0  0  0  0 
  7  9  1  0  0  0  0 
 10  8  1  0  0  0  0 
  9 10  2  0  0  0  0 
  9 11  1  0  0  0  0 
 10 12  1  0  0  0  0 
 13 11  2  0  0  0  0 
 12 14  2  0  0  0  0 
 14 13  1  0  0  0  0 
 13 15  1  0  0  0  0 
 15 16  1  0  0  0  0 
 15 17  1  0  0  0  0 
 17 18  2  0  0  0  0 
 17 19  1  0  0  0  0 
M  END
> <Name>
5H-(1)Benzopyrano(2,3,-b)pyridine-7-acetic acid, alpha-methyl-

> <Source>
DSSTox2DMolFile

> <Tox>
3.632

> <CAS>
52549-17-4

$$$$

  CDK

 19 20  0  0  0  0  0  0  0  0999 V2000
   -1.4118   -1.7444    0.2552 C   0  0  0  0  0  0  0  0  0  0  0  0
   -0.2473   -2.5174   -0.3816 C   0  0  0  0  0  0  0  0  0  0  0  0
   -1.7708   -1.9647    1.4024 O   0  0  0  0  0  0  0  0  0  0  0  0
   -2.0945   -0.8205   -0.5646 N   0  0  0  0  0  0  0  0  0  0  0  0
    0.5527   -1.7195   -1.2320 O   0  0  0  0  0  0  0  0  0  0  0  0
   -3.0933    0.1183   -0.1273 C   0  0  0  0  0  0  0  0  0  0  0  0
    1.5474   -0.9674   -0.6200 C   0  0  0  0  0  0  0  0  0  0  0  0
   -4.1208   -0.2481    0.7481 C   0  0  0  0  0  0  0  0  0  0  0  0
   -3.0540    1.4163   -0.6587 C   0  0  0  0  0  0  0  0  0  0  0  0
    1.8916    0.2407   -1.2552 C   0  0  0  0  0  0  0  0  0  0  0  0
    2.2370   -1.4114    0.5137 C   0  0  0  0  0  0  0  0  0  0  0  0
   -5.0921    0.6863    1.0912 C   0  0  0  0  0  0  0  0  0  0  0  0
   -4.0356    2.3338   -0.3104 C   0  0  0  0  0  0  0  0  0  0  0  0
    2.9500    0.9842   -0.7333 C   0  0  0  0  0  0  0  0  0  0  0  0
    1.1608    0.7308   -2.4524 C   0  0  0  0  0  0  0  0  0  0  0  0
    3.2835   -0.6559    1.0225 C   0  0  0  0  0  0  0  0  0  0  0  0
   -5.0543    1.9725    0.5658 C   0  0  0  0  0  0  0  0  0  0  0  0
    3.6346    0.5353    0.3925 C   0  0  0  0  0  0  0  0  0  0  0  0
    4.9090    1.4536    1.0054 Cl  0  0  0  0  0  0  0  0  0  0  0  0
  1  2  1  0  0  0  0 
  1  3  2  0  0  0  0 
  1  4  1  0  0  0  0 
  2  5  1  0  0  0  0 
  4  6  1  0  0  0  0 
  5  7  1  0  0  0  0 
  6  8  1  0  0  0  0 
  6  9  2  0  0  0  0 
  7 10  1  0  0  0  0 
  7 11  2  0  0  0  0 
  8 12  2  0  0  0  0 
 13  9  1  0  0  0  0 
 10 14  2  0  0  0  0 
 10 15  1  0  0  0  0 
 16 11  1  0  0  0  0 
 12 17  1  0  0  0  0 
 17 13  2  0  0  0  0 
 14 18  1  0  0  0  0 
 18 16  2  0  0  0  0 
 18 19  1  0  0  0  0 
M  END
> <Name>
Acetamide, 2-(4-chloro-2-methylphenoxy)-N-phenyl-

> <Source>
DougDB3DMolFile

> <Tox>
1.787

> <CAS>
52723-84-9

$$$$

  CDK

 19 19  0  0  0  0  0  0  0  0999 V2000
    1.7757   -0.6396    2.8294 Br  0  0  0  0  0  0  0  0  0  0  0  0
    0.7818   -0.9890    1.2788 C   0  0  0  0  0  0  0  0  0  0  0  0
   -0.4688   -2.1838    1.4524 Cl  0  0  0  0  0  0  0  0  0  0  0  0
    1.0095   -0.3496    0.1153 C   0  0  0  0  0  0  0  0  0  0  0  0
    1.9616    0.6021   -0.0309 O   0  0  0  0  0  0  0  0  0  0  0  0
    0.2547   -0.5898   -1.1213 C   0  0  0  0  0  0  0  0  0  0  0  0
    2.7242    0.8873   -1.4304 P   0  0  0  0  0  0  0  0  0  0  0  0
   -0.8937    0.1288   -1.4302 C   0  0  0  0  0  0  0  0  0  0  0  0
    0.7331   -1.5697   -1.9834 C   0  0  0  0  0  0  0  0  0  0  0  0
    3.8543    1.9740   -1.0219 O   0  0  0  0  0  0  0  0  0  0  0  0
    3.5820   -0.4663   -1.6698 O   0  0  0  0  0  0  0  0  0  0  0  0
    1.8341    1.2910   -2.5710 O   0  0  0  0  0  0  0  0  0  0  0  0
   -1.5230    1.3550   -0.3859 Cl  0  0  0  0  0  0  0  0  0  0  0  0
   -1.5745   -0.1362   -2.6185 C   0  0  0  0  0  0  0  0  0  0  0  0
    0.0523   -1.8347   -3.1716 C   0  0  0  0  0  0  0  0  0  0  0  0
    4.7330    1.6648    0.0459 C   0  0  0  0  0  0  0  0  0  0  0  0
    4.4902   -0.5052   -2.7569 C   0  0  0  0  0  0  0  0  0  0  0  0
   -1.1015   -1.1180   -3.4892 C   0  0  0  0  0  0  0  0  0  0  0  0
   -1.9404   -1.4452   -4.9559 Cl  0  0  0  0  0  0  0  0  0  0  0  0
  1  2  1  0  0  0  0 
  3  2  1  0  0  0  0 
  4  2  2  0  0  0  0 
  5  4  1  0  0  0  0 
  6  4  1  0  0  0  0 
  7  5  1  0  0  0  0 
  6  8  2  0  0  0  0 
  6  9  1  0  0  0  0 
  7 10  1  0  0  0  0 
  7 11  1  0  0  0  0 
  7 12  2  0  0  0  0 
 13  8  1  0  0  0  0 
  8 14  1  0  0  0  0 
  9 15  2  0  0  0  0 
 10 16  1  0  0  0  0 
 11 17  1  0  0  0  0 
 14 18  2  0  0  0  0 
 15 18  1  0  0  0  0 
 19 18  1  0  0  0  0 
M  END
> <Name>
Phosphoric acid, 2-bromo-2-chloro-1-(2,4-dichlorophenyl)ethenyl dimethyl ester

> <Source>
Chemidplus3DMolFile

> <Tox>
3.584

> <CAS>
52899-13-5

$$$$

  CDK

 22 23  0  0  0  0  0  0  0  0999 V2000
   -6.0386    4.7208   -1.1285 Cl  0  0  0  0  0  0  0  0  0  0  0  0
   -5.4119    3.1577   -1.4612 C   0  0  0  0  0  0  0  0  0  0  0  0
   -6.2627    2.1092   -1.8048 C   0  0  0  0  0  0  0  0  0  0  0  0
   -4.0376    2.9116   -1.3892 C   0  0  0  0  0  0  0  0  0  0  0  0
   -5.6830    0.8862   -2.0531 C   0  0  0  0  0  0  0  0  0  0  0  0
   -3.4563    1.7105   -1.6319 N   0  0  0  0  0  0  0  0  0  0  0  0
   -6.3407   -0.2772   -2.4052 O   0  0  0  0  0  0  0  0  0  0  0  0
   -4.3200    0.7385   -1.9575 C   0  0  0  0  0  0  0  0  0  0  0  0
   -5.2855   -1.1977   -2.5322 C   0  0  0  0  0  0  0  0  0  0  0  0
   -4.0674   -0.5884   -2.2623 N   0  0  0  0  0  0  0  0  0  0  0  0
   -5.4703   -2.3688   -2.8405 O   0  0  0  0  0  0  0  0  0  0  0  0
   -2.7587   -1.1705   -2.2805 C   0  0  0  0  0  0  0  0  0  0  0  0
   -2.3204   -1.8379   -0.6647 S   0  0  0  0  0  0  0  0  0  0  0  0
   -0.3841   -2.6456   -0.8751 P   0  0  0  0  0  0  0  0  0  0  0  0
    0.2211   -3.5025    0.9529 S   0  0  0  0  0  0  0  0  0  0  0  0
    0.6592   -1.4734   -1.3060 O   0  0  0  0  0  0  0  0  0  0  0  0
   -0.4225   -3.7255   -1.9284 O   0  0  0  0  0  0  0  0  0  0  0  0
    1.8585   -4.1897    0.6366 C   0  0  0  0  0  0  0  0  0  0  0  0
    0.8610   -0.3509   -0.4656 C   0  0  0  0  0  0  0  0  0  0  0  0
    2.4145   -4.8465    1.8951 C   0  0  0  0  0  0  0  0  0  0  0  0
    1.8751    0.5707   -1.1089 C   0  0  0  0  0  0  0  0  0  0  0  0
    3.7949   -5.4346    1.6419 C   0  0  0  0  0  0  0  0  0  0  0  0
  1  2  1  0  0  0  0 
  3  2  2  0  0  0  0 
  2  4  1  0  0  0  0 
  5  3  1  0  0  0  0 
  6  4  2  0  0  0  0 
  7  5  1  0  0  0  0 
  8  5  2  0  0  0  0 
  6  8  1  0  0  0  0 
  7  9  1  0  0  0  0 
 10  8  1  0  0  0  0 
 11  9  2  0  0  0  0 
 10  9  1  0  0  0  0 
 10 12  1  0  0  0  0 
 13 12  1  0  0  0  0 
 13 14  1  0  0  0  0 
 15 14  1  0  0  0  0 
 14 16  1  0  0  0  0 
 14 17  2  0  0  0  0 
 15 18  1  0  0  0  0 
 16 19  1  0  0  0  0 
 18 20  1  0  0  0  0 
 19 21  1  0  0  0  0 
 20 22  1  0  0  0  0 
M  END
> <Name>
Phosphorodithioic acid, O-ethyl S-propyl ester, S-ester with 6-chloro-3-(mercaptomethyl)oxazolo(4,5-b)pyridin-2(3H)-one

> <Source>
Chemidplus3DMolFile

> <Tox>
2.583

> <CAS>
53131-34-3

$$$$

  CDK

 23 22  0  0  0  0  0  0  0  0999 V2000
    1.7680    3.0223   -3.1650 P   0  0  0  0  0  0  0  0  0  0  0  0
    0.3521    2.6428   -3.3381 O   0  0  0  0  0  0  0  0  0  0  0  0
    2.5519    3.0050   -4.7127 C   0  0  0  0  0  0  0  0  0  0  0  0
    2.5385    1.8888   -2.1041 C   0  0  0  0  0  0  0  0  0  0  0  0
    1.8579    4.5994   -2.4530 C   0  0  0  0  0  0  0  0  0  0  0  0
    1.9196    3.9573   -5.7678 C   0  0  0  0  0  0  0  0  0  0  0  0
    2.5179    0.4250   -2.6097 C   0  0  0  0  0  0  0  0  0  0  0  0
    1.1715    4.6962   -1.0594 C   0  0  0  0  0  0  0  0  0  0  0  0
    2.5987    3.9327   -7.1772 C   0  0  0  0  0  0  0  0  0  0  0  0
    3.1738   -0.5689   -1.6158 C   0  0  0  0  0  0  0  0  0  0  0  0
    1.2130    6.1225   -0.4522 C   0  0  0  0  0  0  0  0  0  0  0  0
    2.5604    2.5336   -7.8632 C   0  0  0  0  0  0  0  0  0  0  0  0
    1.9472    4.9918   -8.1136 C   0  0  0  0  0  0  0  0  0  0  0  0
    3.1322   -2.0169   -2.1738 C   0  0  0  0  0  0  0  0  0  0  0  0
    0.5185    6.1907    0.9358 C   0  0  0  0  0  0  0  0  0  0  0  0
    3.8251   -3.0523   -1.2537 C   0  0  0  0  0  0  0  0  0  0  0  0
    0.5793    7.6016    1.5760 C   0  0  0  0  0  0  0  0  0  0  0  0
    3.7598   -4.4889   -1.8382 C   0  0  0  0  0  0  0  0  0  0  0  0
   -0.1274    7.6499    2.9558 C   0  0  0  0  0  0  0  0  0  0  0  0
    4.4447   -5.5352   -0.9205 C   0  0  0  0  0  0  0  0  0  0  0  0
   -0.0763    9.0600    3.6008 C   0  0  0  0  0  0  0  0  0  0  0  0
    4.3746   -6.9664   -1.4973 C   0  0  0  0  0  0  0  0  0  0  0  0
   -0.7861    9.1024    4.9723 C   0  0  0  0  0  0  0  0  0  0  0  0
  1  2  2  0  0  0  0 
  1  3  1  0  0  0  0 
  1  4  1  0  0  0  0 
  1  5  1  0  0  0  0 
  3  6  1  0  0  0  0 
  4  7  1  0  0  0  0 
  5  8  1  0  0  0  0 
  6  9  1  0  0  0  0 
  7 10  1  0  0  0  0 
  8 11  1  0  0  0  0 
  9 12  1  0  0  0  0 
  9 13  1  0  0  0  0 
 10 14  1  0  0  0  0 
 11 15  1  0  0  0  0 
 14 16  1  0  0  0  0 
 15 17  1  0  0  0  0 
 16 18  1  0  0  0  0 
 17 19  1  0  0  0  0 
 18 20  1  0  0  0  0 
 19 21  1  0  0  0  0 
 20 22  1  0  0  0  0 
 21 23  1  0  0  0  0 
M  END
> <Name>
Phosphine oxide, (3-methylbutyl)dioctyl- (9CI)

> <Source>
Chemidplus3DMolFile

> <Tox>
1.615

> <CAS>
53521-41-8

$$$$

  CDK

 29 33  0  0  0  0  0  0  0  0999 V2000
    0.0000    0.0000    0.0000 O   0  0  0  0  0  0  0  0  0  0  0  0
    0.4400    1.0200   -0.7400 C   0  0  0  0  0  0  0  0  0  0  0  0
    1.5400    1.4800   -0.6400 O   0  0  0  0  0  0  0  0  0  0  0  0
   -0.5600    1.5600   -1.7000 C   0  0  0  0  0  0  0  0  0  0  0  0
   -1.8400    1.0000   -1.8000 C   0  0  0  0  0  0  0  0  0  0  0  0
   -0.2000    2.6400   -2.5400 C   0  0  0  0  0  0  0  0  0  0  0  0
   -2.7800    1.5000   -2.7000 C   0  0  0  0  0  0  0  0  0  0  0  0
   -1.1400    3.1600   -3.4600 C   0  0  0  0  0  0  0  0  0  0  0  0
    1.0000    3.2000   -2.4800 O   0  0  0  0  0  0  0  0  0  0  0  0
   -2.4200    2.5800   -3.5400 C   0  0  0  0  0  0  0  0  0  0  0  0
   -4.0200    0.9600   -2.7800 N   0  0  0  0  0  0  0  0  0  0  0  0
   -5.2000    1.6400   -2.9800 C   0  0  0  0  0  0  0  0  0  0  0  0
   -4.3400   -0.4000   -2.6800 C   0  0  0  0  0  0  0  0  0  0  0  0
   -6.1200    0.6400   -2.9800 C   0  0  0  0  0  0  0  0  0  0  0  0
   -5.4400    3.1000   -3.2000 C   0  0  0  0  0  0  0  0  0  0  0  0
   -5.7200   -0.6800   -2.8000 C   0  0  0  0  0  0  0  0  0  0  0  0
   -3.4800   -1.5800   -2.4600 C   0  0  0  0  0  0  0  0  0  0  0  0
   -7.5000    0.9400   -3.1400 C   0  0  0  0  0  0  0  0  0  0  0  0
   -6.9000    3.4200   -2.8000 C   0  0  0  0  0  0  0  0  0  0  0  0
   -2.2200   -1.6800   -3.1000 C   0  0  0  0  0  0  0  0  0  0  0  0
   -3.9200   -2.6200   -1.6200 C   0  0  0  0  0  0  0  0  0  0  0  0
   -7.8800    2.3400   -3.1000 C   0  0  0  0  0  0  0  0  0  0  0  0
   -8.5400    0.0200   -3.3600 C   0  0  0  0  0  0  0  0  0  0  0  0
   -1.4200   -2.8000   -2.9000 C   0  0  0  0  0  0  0  0  0  0  0  0
   -3.1000   -3.7600   -1.4200 C   0  0  0  0  0  0  0  0  0  0  0  0
   -9.2200    2.7400   -3.3400 C   0  0  0  0  0  0  0  0  0  0  0  0
   -9.8800    0.4200   -3.5600 C   0  0  0  0  0  0  0  0  0  0  0  0
   -1.8400   -3.8400   -2.0600 C   0  0  0  0  0  0  0  0  0  0  0  0
  -10.2000    1.7800   -3.5600 C   0  0  0  0  0  0  0  0  0  0  0  0
  1  2  1  0  0  0  0 
  2  3  2  0  0  0  0 
  2  4  1  0  0  0  0 
  4  5  2  0  0  0  0 
  4  6  1  0  0  0  0 
  5  7  1  0  0  0  0 
  8  6  2  0  0  0  0 
  6  9  1  0  0  0  0 
  7 10  2  0  0  0  0 
  7 11  1  0  0  0  0 
 10  8  1  0  0  0  0 
 11 12  1  0  0  0  0 
 11 13  1  0  0  0  0 
 12 14  2  0  0  0  0 
 12 15  1  0  0  0  0 
 13 16  2  0  0  0  0 
 13 17  1  0  0  0  0 
 14 18  1  0  0  0  0 
 14 16  1  0  0  0  0 
 19 15  1  0  0  0  0 
 17 20  2  0  0  0  0 
 17 21  1  0  0  0  0 
 18 22  2  0  0  0  0 
 18 23  1  0  0  0  0 
 22 19  1  0  0  0  0 
 20 24  1  0  0  0  0 
 25 21  2  0  0  0  0 
 22 26  1  0  0  0  0 
 27 23  2  0  0  0  0 
 24 28  2  0  0  0  0 
 28 25  1  0  0  0  0 
 26 29  2  0  0  0  0 
 29 27  1  0  0  0  0 
M  END
> <Name>
Benzoic acid, 5-(4,5-dihydro-2-phenyl-3H-benz(e)indol-3-yl)-2-hydroxy-

> <Source>
NIH3DMolFile

> <Tox>
2.928

> <CAS>
53597-27-6

$$$$

  CDK

 19 21  0  0  0  0  0  0  0  0999 V2000
    0.0000    0.0000    0.0000 Cl  0  0  0  0  0  0  0  0  0  0  0  0
   -1.2600   -0.3600   -1.1000 C   0  0  0  0  0  0  0  0  0  0  0  0
   -2.5600   -0.6400   -0.6000 C   0  0  0  0  0  0  0  0  0  0  0  0
   -1.0000   -0.3800   -2.5000 C   0  0  0  0  0  0  0  0  0  0  0  0
   -3.5800   -0.9400   -1.5200 C   0  0  0  0  0  0  0  0  0  0  0  0
   -2.0200   -0.6800   -3.4200 C   0  0  0  0  0  0  0  0  0  0  0  0
   -4.9000   -1.2400   -1.3600 C   0  0  0  0  0  0  0  0  0  0  0  0
   -3.3000   -0.9400   -2.8800 C   0  0  0  0  0  0  0  0  0  0  0  0
   -5.4800   -1.4400   -2.6000 C   0  0  0  0  0  0  0  0  0  0  0  0
   -5.6600   -1.3600   -0.1800 C   0  0  0  0  0  0  0  0  0  0  0  0
   -4.4800   -1.2600   -3.5400 N   0  0  0  0  0  0  0  0  0  0  0  0
   -6.8200   -1.7800   -2.7600 C   0  0  0  0  0  0  0  0  0  0  0  0
   -7.0400   -1.6800   -0.3200 C   0  0  0  0  0  0  0  0  0  0  0  0
   -7.6200   -1.8800   -1.6000 C   0  0  0  0  0  0  0  0  0  0  0  0
   -9.0600   -2.2400   -1.7000 C   0  0  0  0  0  0  0  0  0  0  0  0
   -9.6800   -2.4600   -0.3600 C   0  0  0  0  0  0  0  0  0  0  0  0
   -9.8200   -1.2000   -2.5400 C   0  0  0  0  0  0  0  0  0  0  0  0
   -9.9000   -1.5200    0.3800 O   0  0  0  0  0  0  0  0  0  0  0  0
   -9.9800   -3.7200   -0.0800 O   0  0  0  0  0  0  0  0  0  0  0  0
  1  2  1  0  0  0  0 
  2  3  2  0  0  0  0 
  2  4  1  0  0  0  0 
  3  5  1  0  0  0  0 
  6  4  2  0  0  0  0 
  5  7  1  0  0  0  0 
  5  8  2  0  0  0  0 
  8  6  1  0  0  0  0 
  7  9  1  0  0  0  0 
  7 10  2  0  0  0  0 
 11  8  1  0  0  0  0 
  9 12  2  0  0  0  0 
  9 11  1  0  0  0  0 
 13 10  1  0  0  0  0 
 12 14  1  0  0  0  0 
 14 13  2  0  0  0  0 
 14 15  1  0  0  0  0 
 16 15  1  0  0  0  0 
 15 17  1  0  0  0  0 
 18 16  2  0  0  0  0 
 16 19  1  0  0  0  0 
M  END
> <Name>
9H-Carbazole-2-acetic acid, 6-chloro-alpha-methyl-, (+-)-

> <Source>
NIH3DMolFile

> <Tox>
3.568

> <CAS>
53716-49-7

$$$$

  CDK

 12 12  0  0  0  0  0  0  0  0999 V2000
    2.7704   -1.4096    0.8986 S   0  0  0  0  0  0  0  0  0  0  0  0
    1.1744   -2.2671    1.0496 C   0  0  0  0  0  0  0  0  0  0  0  0
    2.0841   -0.3570   -0.3068 C   0  0  0  0  0  0  0  0  0  0  0  0
    0.4226   -2.0235   -0.1441 O   0  0  0  0  0  0  0  0  0  0  0  0
    1.3646   -3.7619    1.2228 C   0  0  0  0  0  0  0  0  0  0  0  0
    2.7455    0.5934   -0.8688 N   0  0  0  0  0  0  0  0  0  0  0  0
    0.6431   -0.6791   -0.5691 C   0  0  0  0  0  0  0  0  0  0  0  0
    4.0554    0.5815   -0.3684 O   0  0  0  0  0  0  0  0  0  0  0  0
    4.7673    1.5890   -0.9602 C   0  0  0  0  0  0  0  0  0  0  0  0
    4.3212    2.3733   -1.7921 O   0  0  0  0  0  0  0  0  0  0  0  0
    6.0590    1.5872   -0.4750 N   0  0  0  0  0  0  0  0  0  0  0  0
    7.0696    2.5297   -0.8957 C   0  0  0  0  0  0  0  0  0  0  0  0
  1  2  1  0  0  0  0 
  1  3  1  0  0  0  0 
  4  2  1  0  0  0  0 
  2  5  1  0  0  0  0 
  6  3  2  0  0  0  0 
  7  3  1  0  0  0  0 
  4  7  1  0  0  0  0 
  8  6  1  0  0  0  0 
  8  9  1  0  0  0  0 
 10  9  2  0  0  0  0 
 11  9  1  0  0  0  0 
 11 12  1  0  0  0  0 
M  END
> <Name>
1,3-Oxathiolan-4-one, 2-methyl-, O-((methylamino)carbonyl)oxime, (Z)-

> <Source>
Chemidplus3DMolFile

> <Tox>
4.200

> <CAS>
54266-45-4

$$$$

  CDK

 12 12  0  0  0  0  0  0  0  0999 V2000
    2.7704   -1.4096    0.8986 S   0  0  0  0  0  0  0  0  0  0  0  0
    1.1744   -2.2671    1.0496 C   0  0  0  0  0  0  0  0  0  0  0  0
    2.0841   -0.3570   -0.3068 C   0  0  0  0  0  0  0  0  0  0  0  0
    0.4226   -2.0235   -0.1441 O   0  0  0  0  0  0  0  0  0  0  0  0
    1.3646   -3.7619    1.2228 C   0  0  0  0  0  0  0  0  0  0  0  0
    2.7455    0.5934   -0.8688 N   0  0  0  0  0  0  0  0  0  0  0  0
    0.6431   -0.6791   -0.5691 C   0  0  0  0  0  0  0  0  0  0  0  0
    1.8939    1.2637   -1.7587 O   0  0  0  0  0  0  0  0  0  0  0  0
    2.5883    2.2768   -2.3618 C   0  0  0  0  0  0  0  0  0  0  0  0
    3.7674    2.5456   -2.1526 O   0  0  0  0  0  0  0  0  0  0  0  0
    1.7597    2.9441   -3.2405 N   0  0  0  0  0  0  0  0  0  0  0  0
    2.1870    4.0676   -4.0415 C   0  0  0  0  0  0  0  0  0  0  0  0
  1  2  1  0  0  0  0 
  1  3  1  0  0  0  0 
  4  2  1  0  0  0  0 
  2  5  1  0  0  0  0 
  6  3  2  0  0  0  0 
  7  3  1  0  0  0  0 
  4  7  1  0  0  0  0 
  8  6  1  0  0  0  0 
  8  9  1  0  0  0  0 
 10  9  2  0  0  0  0 
 11  9  1  0  0  0  0 
 11 12  1  0  0  0  0 
M  END
> <Name>
1,3-Oxathiolan-4-one, 2-methyl-, O-((methylamino)carbonyl)oxime, anti-

> <Source>
Chemidplus3DMolFile

> <Tox>
3.589

> <CAS>
54266-57-8

$$$$

  CDK

 18 19  0  0  0  0  0  0  0  0999 V2000
    4.0343    0.3437    0.0000 O   0  0  0  0  0  0  0  0  0  0  0  0
    3.3198    0.7562    0.0000 N   0  0  0  0  0  0  0  0  0  0  0  0
    3.3198    1.5812    0.0000 O   0  0  0  0  0  0  0  0  0  0  0  0
    2.6054    0.3437    0.0000 C   0  0  0  0  0  0  0  0  0  0  0  0
    1.8909    0.7563    0.0000 C   0  0  0  0  0  0  0  0  0  0  0  0
    2.6054   -0.4813    0.0000 C   0  0  0  0  0  0  0  0  0  0  0  0
    1.1764    0.3438    0.0000 C   0  0  0  0  0  0  0  0  0  0  0  0
    1.8909   -0.8937    0.0000 C   0  0  0  0  0  0  0  0  0  0  0  0
    1.1764   -0.4812    0.0000 C   0  0  0  0  0  0  0  0  0  0  0  0
    0.3918    0.5987    0.0000 C   0  0  0  0  0  0  0  0  0  0  0  0
    0.3918   -0.7362    0.0000 C   0  0  0  0  0  0  0  0  0  0  0  0
   -0.0931   -0.0687    0.0000 N   0  0  0  0  0  0  0  0  0  0  0  0
    0.1369    1.3833    0.0000 O   0  0  0  0  0  0  0  0  0  0  0  0
    0.1369   -1.5208    0.0000 O   0  0  0  0  0  0  0  0  0  0  0  0
   -0.9181   -0.0687    0.0000 C   0  0  0  0  0  0  0  0  0  0  0  0
   -1.7431   -0.0687    0.0000 C   0  0  0  0  0  0  0  0  0  0  0  0
   -2.5681   -0.0687    0.0000 C   0  0  0  0  0  0  0  0  0  0  0  0
   -3.3931   -0.0687    0.0000 C   0  0  0  0  0  0  0  0  0  0  0  0
  1  2  2  0  0  0  0 
  2  3  2  0  0  0  0 
  2  4  1  0  0  0  0 
  4  5  1  0  0  0  0 
  4  6  2  0  0  0  0 
  5  7  2  0  0  0  0 
  8  6  1  0  0  0  0 
  7  9  1  0  0  0  0 
  7 10  1  0  0  0  0 
  9  8  2  0  0  0  0 
  9 11  1  0  0  0  0 
 12 10  1  0  0  0  0 
 10 13  2  0  0  0  0 
 11 14  2  0  0  0  0 
 11 12  1  0  0  0  0 
 12 15  1  0  0  0  0 
 15 16  1  0  0  0  0 
 16 17  1  0  0  0  0 
 17 18  1  0  0  0  0 
M  END
> <Name>
1H-Isoindole-1,3(2H)-dione, 2-butyl-5-nitro-

> <Source>
Smiles

> <Tox>
2.268

> <CAS>
54395-37-8

$$$$

  CDK

 13 12  0  0  0  0  0  0  0  0999 V2000
    1.7098    5.8894   -3.1670 Cl  0  0  0  0  0  0  0  0  0  0  0  0
    1.3705    6.0052   -1.4245 C   0  0  0  0  0  0  0  0  0  0  0  0
    0.0637    5.3109   -1.0460 C   0  0  0  0  0  0  0  0  0  0  0  0
    0.0302    3.8109   -1.3438 C   0  0  0  0  0  0  0  0  0  0  0  0
    1.0731    3.0146   -0.5797 C   0  0  0  0  0  0  0  0  0  0  0  0
    1.4754    3.3210    0.5391 O   0  0  0  0  0  0  0  0  0  0  0  0
    1.4852    1.8930   -1.2819 N   0  0  0  0  0  0  0  0  0  0  0  0
    2.6560    0.7969   -0.6623 P   0  0  0  0  0  0  0  0  0  0  0  0
    2.9802   -0.7169   -2.0882 S   0  0  0  0  0  0  0  0  0  0  0  0
    4.0128    1.6722   -0.4645 O   0  0  0  0  0  0  0  0  0  0  0  0
    2.2204    0.1722    0.6394 O   0  0  0  0  0  0  0  0  0  0  0  0
    4.2135   -1.8071   -1.3506 C   0  0  0  0  0  0  0  0  0  0  0  0
    4.6160    2.3133   -1.5748 C   0  0  0  0  0  0  0  0  0  0  0  0
  1  2  1  0  0  0  0 
  3  2  1  0  0  0  0 
  4  3  1  0  0  0  0 
  4  5  1  0  0  0  0 
  6  5  2  0  0  0  0 
  7  5  1  0  0  0  0 
  8  7  1  0  0  0  0 
  9  8  1  0  0  0  0 
  8 10  1  0  0  0  0 
  8 11  2  0  0  0  0 
  9 12  1  0  0  0  0 
 10 13  1  0  0  0  0 
M  END
> <Name>
Phosphoramidothioic acid, (4-chlorobutyryl)-, O,S-dimethyl ester

> <Source>
Chemidplus3DMolFile

> <Tox>
4.913

> <CAS>
54473-41-5

$$$$

  CDK

 15 14  0  0  0  0  0  0  0  0999 V2000
    0.0000   -4.1213    0.0000 S   0  0  0  0  0  0  0  0  0  0  0  0
    1.1548   -3.4506    0.0000 P   0  0  0  0  0  0  0  0  0  0  0  0
    0.4840   -2.2958    0.0000 O   0  0  0  0  0  0  0  0  0  0  0  0
    1.8117   -4.6054    0.0000 O   0  0  0  0  0  0  0  0  0  0  0  0
    2.3096   -2.7936    0.0000 O   0  0  0  0  0  0  0  0  0  0  0  0
    1.1548   -1.1548    0.0000 C   0  0  0  0  0  0  0  0  0  0  0  0
    1.1548   -5.7602    0.0000 C   0  0  0  0  0  0  0  0  0  0  0  0
    3.4506   -3.4506    0.0000 C   0  0  0  0  0  0  0  0  0  0  0  0
    0.4840   -0.0000    0.0000 C   0  0  0  0  0  0  0  0  0  0  0  0
    1.8117   -6.9150    0.0000 C   0  0  0  0  0  0  0  0  0  0  0  0
    4.6054   -2.7936    0.0000 C   0  0  0  0  0  0  0  0  0  0  0  0
    3.4506   -4.7782    0.0000 Cl  0  0  0  0  0  0  0  0  0  0  0  0
    3.9484   -1.6388    0.0000 Cl  0  0  0  0  0  0  0  0  0  0  0  0
    5.2761   -3.9484    0.0000 Cl  0  0  0  0  0  0  0  0  0  0  0  0
    5.7602   -2.1160    0.0000 Cl  0  0  0  0  0  0  0  0  0  0  0  0
  1  2  2  0  0  0  0 
  2  3  1  0  0  0  0 
  2  4  1  0  0  0  0 
  2  5  1  0  0  0  0 
  3  6  1  0  0  0  0 
  4  7  1  0  0  0  0 
  5  8  1  0  0  0  0 
  6  9  1  0  0  0  0 
  7 10  1  0  0  0  0 
  8 11  1  0  0  0  0 
  8 12  1  0  0  0  0 
 11 13  1  0  0  0  0 
 11 14  1  0  0  0  0 
 11 15  1  0  0  0  0 
M  END
> <Name>
Phosphorothioic acid, O,O-diethyl O-(1,2,2,2-tetrachloroethyl) ester

> <Source>
DSSTox2DMolFile

> <Tox>
5.225

> <CAS>
54593-83-8

$$$$

  CDK

 18 19  0  0  0  0  0  0  0  0999 V2000
   -1.0602   -1.6065    0.4069 Cl  0  0  0  0  0  0  0  0  0  0  0  0
    0.5574   -1.2774    0.8943 C   0  0  0  0  0  0  0  0  0  0  0  0
    1.6239   -1.8708    0.2188 C   0  0  0  0  0  0  0  0  0  0  0  0
    0.8020   -0.4172    1.9649 C   0  0  0  0  0  0  0  0  0  0  0  0
    2.9348   -1.6038    0.6137 C   0  0  0  0  0  0  0  0  0  0  0  0
    2.1129   -0.1502    2.3597 C   0  0  0  0  0  0  0  0  0  0  0  0
    3.9930   -2.1929   -0.0536 N   0  0  0  0  0  0  0  0  0  0  0  0
    3.1792   -0.7434    1.6842 C   0  0  0  0  0  0  0  0  0  0  0  0
    5.1831   -1.5606   -0.1360 N   0  0  0  0  0  0  0  0  0  0  0  0
    3.9904   -3.4122   -0.6813 C   0  0  0  0  0  0  0  0  0  0  0  0
    5.9415   -2.4098   -0.8343 C   0  0  0  0  0  0  0  0  0  0  0  0
    2.9148   -4.1867   -0.7114 O   0  0  0  0  0  0  0  0  0  0  0  0
    5.2507   -3.5803   -1.2009 C   0  0  0  0  0  0  0  0  0  0  0  0
    7.3051   -2.0726   -1.1285 C   0  0  0  0  0  0  0  0  0  0  0  0
    2.7312   -5.0594   -1.8461 C   0  0  0  0  0  0  0  0  0  0  0  0
    8.0538   -2.8143   -1.7987 O   0  0  0  0  0  0  0  0  0  0  0  0
    7.7691   -0.8357   -0.6498 N   0  0  0  0  0  0  0  0  0  0  0  0
    9.1063   -0.3415   -0.8882 C   0  0  0  0  0  0  0  0  0  0  0  0
  1  2  1  0  0  0  0 
  3  2  1  0  0  0  0 
  2  4  2  0  0  0  0 
  5  3  2  0  0  0  0 
  6  4  1  0  0  0  0 
  7  5  1  0  0  0  0 
  5  8  1  0  0  0  0 
  8  6  2  0  0  0  0 
  7  9  1  0  0  0  0 
  7 10  1  0  0  0  0 
  9 11  2  0  0  0  0 
 12 10  1  0  0  0  0 
 10 13  2  0  0  0  0 
 11 13  1  0  0  0  0 
 11 14  1  0  0  0  0 
 12 15  1  0  0  0  0 
 16 14  2  0  0  0  0 
 17 14  1  0  0  0  0 
 17 18  1  0  0  0  0 
M  END
> <Name>
1H-Pyrazole-3-carboxamide, 1-(3-chlorophenyl)-5-methoxy-N-methyl-

> <Source>
Chemidplus3DMolFile

> <Tox>
2.237

> <CAS>
54708-68-8

$$$$

  CDK

 23 23  0  0  0  0  0  0  0  0999 V2000
    0.0000    9.6622    0.0000 C   0  0  0  0  0  0  0  0  0  0  0  0
    0.6664    8.4544    0.0000 C   0  0  0  0  0  0  0  0  0  0  0  0
    2.0824    8.4544    0.0000 C   0  0  0  0  0  0  0  0  0  0  0  0
    2.7904    7.2467    0.0000 C   0  0  0  0  0  0  0  0  0  0  0  0
    4.1647    7.2467    0.0000 C   0  0  0  0  0  0  0  0  0  0  0  0
    4.8728    6.0389    0.0000 C   0  0  0  0  0  0  0  0  0  0  0  0
    6.2888    6.0389    0.0000 C   0  0  0  0  0  0  0  0  0  0  0  0
    6.9551    4.8311    0.0000 C   0  0  0  0  0  0  0  0  0  0  0  0
    8.3711    4.8311    0.0000 N   0  0  0  0  0  0  0  0  0  0  0  0
    9.0792    3.6233    0.0000 C   0  0  0  0  0  0  0  0  0  0  0  0
   10.4535    3.6233    0.0000 C   0  0  0  0  0  0  0  0  0  0  0  0
    8.3711    2.4156    0.0000 C   0  0  0  0  0  0  0  0  0  0  0  0
    9.0792    1.2078    0.0000 O   0  0  0  0  0  0  0  0  0  0  0  0
    6.9551    2.4156    0.0000 C   0  0  0  0  0  0  0  0  0  0  0  0
    6.2888    1.2078    0.0000 C   0  0  0  0  0  0  0  0  0  0  0  0
    6.2888    3.6233    0.0000 C   0  0  0  0  0  0  0  0  0  0  0  0
    4.8728    1.2078    0.0000 C   0  0  0  0  0  0  0  0  0  0  0  0
    4.8728    3.6233    0.0000 C   0  0  0  0  0  0  0  0  0  0  0  0
    4.1647    2.4156    0.0000 C   0  0  0  0  0  0  0  0  0  0  0  0
    2.7904    2.4156    0.0000 S   0  0  0  0  0  0  0  0  0  0  0  0
    2.0824    1.2078    0.0000 C   0  0  0  0  0  0  0  0  0  0  0  0
    2.7904    0.0000    0.0000 C   0  0  0  0  0  0  0  0  0  0  0  0
    0.6664    1.2078    0.0000 C   0  0  0  0  0  0  0  0  0  0  0  0
  1  2  1  0  0  0  0 
  2  3  1  0  0  0  0 
  3  4  1  0  0  0  0 
  4  5  1  0  0  0  0 
  5  6  1  0  0  0  0 
  6  7  1  0  0  0  0 
  7  8  1  0  0  0  0 
  8  9  1  0  0  0  0 
  9 10  1  0  0  0  0 
 10 11  1  0  0  0  0 
 10 12  1  0  0  0  0 
 12 13  1  0  0  0  0 
 12 14  1  0  0  0  0 
 14 15  1  0  0  0  0 
 14 16  2  0  0  0  0 
 15 17  2  0  0  0  0 
 18 16  1  0  0  0  0 
 17 19  1  0  0  0  0 
 19 18  2  0  0  0  0 
 19 20  1  0  0  0  0 
 20 21  1  0  0  0  0 
 21 22  1  0  0  0  0 
 21 23  1  0  0  0  0 
M  END
> <Name>
Benzenemethanol, 4-((1-methylethyl)thio)-alpha-((1R)-1-(octylamino)ethyl)-, (alphaS)-

> <Source>
IndexNet2DMolFile

> <Tox>
2.288

> <CAS>
54767-75-8

$$$$

  CDK

 29 31  0  0  0  0  0  0  0  0999 V2000
    7.3329   -4.8078    0.0000 N   0  0  0  0  0  0  0  0  0  0  0  0
    6.0204   -4.8078    0.0000 C   0  0  0  0  0  0  0  0  0  0  0  0
    7.3329   -3.4810    0.0000 C   0  0  0  0  0  0  0  0  0  0  0  0
    8.4600   -5.4497    0.0000 C   0  0  0  0  0  0  0  0  0  0  0  0
    5.0931   -5.7208    0.0000 O   0  0  0  0  0  0  0  0  0  0  0  0
    6.0204   -3.4810    0.0000 C   0  0  0  0  0  0  0  0  0  0  0  0
    8.4600   -2.8247    0.0000 S   0  0  0  0  0  0  0  0  0  0  0  0
    9.6583   -4.8078    0.0000 C   0  0  0  0  0  0  0  0  0  0  0  0
    8.4600   -6.7908    0.0000 C   0  0  0  0  0  0  0  0  0  0  0  0
    4.6936   -3.4810    0.0000 N   0  0  0  0  0  0  0  0  0  0  0  0
    9.6583   -3.4667    0.0000 C   0  0  0  0  0  0  0  0  0  0  0  0
   10.7854   -5.5353    0.0000 C   0  0  0  0  0  0  0  0  0  0  0  0
    9.6583   -7.4613    0.0000 O   0  0  0  0  0  0  0  0  0  0  0  0
    7.3044   -7.4613    0.0000 O   0  0  0  0  0  0  0  0  0  0  0  0
    4.0231   -2.3682    0.0000 C   0  0  0  0  0  0  0  0  0  0  0  0
   11.9552   -4.8363    0.0000 O   0  0  0  0  0  0  0  0  0  0  0  0
    2.6678   -2.3682    0.0000 C   0  0  0  0  0  0  0  0  0  0  0  0
    4.6936   -1.1984    0.0000 O   0  0  0  0  0  0  0  0  0  0  0  0
   13.1108   -5.5353    0.0000 C   0  0  0  0  0  0  0  0  0  0  0  0
    2.0116   -3.4810    0.0000 C   0  0  0  0  0  0  0  0  0  0  0  0
    2.0686   -1.1270    0.0000 N   0  0  0  0  0  0  0  0  0  0  0  0
   14.2664   -4.8934    0.0000 O   0  0  0  0  0  0  0  0  0  0  0  0
   13.1108   -6.9049    0.0000 N   0  0  0  0  0  0  0  0  0  0  0  0
    2.4253   -4.6936    0.0000 O   0  0  0  0  0  0  0  0  0  0  0  0
    0.6420   -3.4810    0.0000 C   0  0  0  0  0  0  0  0  0  0  0  0
    0.7133   -1.1270    0.0000 O   0  0  0  0  0  0  0  0  0  0  0  0
    1.3125   -5.4640    0.0000 C   0  0  0  0  0  0  0  0  0  0  0  0
    0.2853   -4.6936    0.0000 C   0  0  0  0  0  0  0  0  0  0  0  0
    0.0000   -0.0000    0.0000 C   0  0  0  0  0  0  0  0  0  0  0  0
  1  2  1  0  0  0  0 
  1  3  1  0  0  0  0 
  1  4  1  0  0  0  0 
  2  5  2  0  0  0  0 
  2  6  1  0  0  0  0 
  6  3  1  0  0  0  0 
  3  7  1  0  0  0  0 
  4  8  2  0  0  0  0 
  4  9  1  0  0  0  0 
  6 10  1  1  0  0  0 
  7 11  1  0  0  0  0 
  8 11  1  0  0  0  0 
  8 12  1  0  0  0  0 
  9 13  2  0  0  0  0 
  9 14  1  0  0  0  0 
 10 15  1  0  0  0  0 
 12 16  1  0  0  0  0 
 15 17  1  0  0  0  0 
 15 18  2  0  0  0  0 
 19 16  1  0  0  0  0 
 17 20  1  0  0  0  0 
 17 21  2  0  0  0  0 
 19 22  2  0  0  0  0 
 19 23  1  0  0  0  0 
 20 24  1  0  0  0  0 
 20 25  2  0  0  0  0 
 21 26  1  0  0  0  0 
 24 27  1  0  0  0  0 
 25 28  1  0  0  0  0 
 26 29  1  0  0  0  0 
 27 28  2  0  0  0  0 
M  END
> <Name>
5-Thia-1-azabicyclo(4.2.0)oct-2-ene-2-carboxylic acid, 3-(((aminocarbonyl)oxy)methyl)-7-((2-furanyl(methoxyimino)acetyl)amino)-8-oxo-, (6R-(6alpha,7beta(Z)))-

> <Source>
DSSTox2DMolFile

> <Tox>
1.628

> <CAS>
55268-75-2

$$$$

  CDK

 27 29  0  0  0  0  0  0  0  0999 V2000
   -4.5694    3.5801    2.6488 F   0  0  0  0  0  0  0  0  0  0  0  0
   -4.0901    4.1097    3.7839 C   0  0  0  0  0  0  0  0  0  0  0  0
   -2.9425    3.5905    4.3836 C   0  0  0  0  0  0  0  0  0  0  0  0
   -4.7530    5.1905    4.3655 C   0  0  0  0  0  0  0  0  0  0  0  0
   -2.2517    2.4693    3.7842 C   0  0  0  0  0  0  0  0  0  0  0  0
   -2.4581    4.1526    5.5648 C   0  0  0  0  0  0  0  0  0  0  0  0
   -4.2684    5.7525    5.5466 C   0  0  0  0  0  0  0  0  0  0  0  0
   -2.5997    1.1657    4.1376 C   0  0  0  0  0  0  0  0  0  0  0  0
   -1.2371    2.6924    2.8533 C   0  0  0  0  0  0  0  0  0  0  0  0
   -3.1210    5.2335    6.1463 C   0  0  0  0  0  0  0  0  0  0  0  0
   -1.9331    0.0851    3.5602 C   0  0  0  0  0  0  0  0  0  0  0  0
   -0.5705    1.6118    2.2757 C   0  0  0  0  0  0  0  0  0  0  0  0
   -0.9298    0.3262    2.6388 C   0  0  0  0  0  0  0  0  0  0  0  0
   -0.2059   -0.8472    2.0111 C   0  0  0  0  0  0  0  0  0  0  0  0
   -0.4221   -0.8972    0.4979 C   0  0  0  0  0  0  0  0  0  0  0  0
    1.2855   -0.8340    2.3536 C   0  0  0  0  0  0  0  0  0  0  0  0
    0.3378   -0.3352   -0.2910 O   0  0  0  0  0  0  0  0  0  0  0  0
   -1.6279   -1.6838    0.0139 C   0  0  0  0  0  0  0  0  0  0  0  0
   -2.8210   -1.1361    0.5351 O   0  0  0  0  0  0  0  0  0  0  0  0
   -3.4222   -0.1659   -0.2149 C   0  0  0  0  0  0  0  0  0  0  0  0
   -3.0161    0.2598   -1.2851 O   0  0  0  0  0  0  0  0  0  0  0  0
   -4.6603    0.3261    0.4403 C   0  0  0  0  0  0  0  0  0  0  0  0
   -5.3963    1.3099   -0.1776 C   0  0  0  0  0  0  0  0  0  0  0  0
   -5.0376   -0.2165    1.6462 C   0  0  0  0  0  0  0  0  0  0  0  0
   -6.5436    1.7335    0.4735 C   0  0  0  0  0  0  0  0  0  0  0  0
   -6.2010    0.2754    2.2158 C   0  0  0  0  0  0  0  0  0  0  0  0
   -6.9671    1.2402    1.6588 N   0  0  0  0  0  0  0  0  0  0  0  0
  1  2  1  0  0  0  0 
  3  2  1  0  0  0  0 
  2  4  2  0  0  0  0 
  5  3  1  0  0  0  0 
  3  6  2  0  0  0  0 
  4  7  1  0  0  0  0 
  5  8  2  0  0  0  0 
  5  9  1  0  0  0  0 
  6 10  1  0  0  0  0 
 10  7  2  0  0  0  0 
 11  8  1  0  0  0  0 
 12  9  2  0  0  0  0 
 13 11  2  0  0  0  0 
 13 12  1  0  0  0  0 
 14 13  1  0  0  0  0 
 14 15  1  0  0  0  0 
 14 16  1  0  0  0  0 
 17 15  2  0  0  0  0 
 15 18  1  0  0  0  0 
 19 18  1  0  0  0  0 
 19 20  1  0  0  0  0 
 21 20  2  0  0  0  0 
 20 22  1  0  0  0  0 
 22 23  2  0  0  0  0 
 22 24  1  0  0  0  0 
 23 25  1  0  0  0  0 
 24 26  2  0  0  0  0 
 27 25  2  0  0  0  0 
 27 26  1  0  0  0  0 
M  END
> <Name>
4-Pyridinecarboxylic acid, 3-(2'-fluoro(1,1'-biphenyl)-4-yl)-2-oxobutyl ester

> <Source>
Chemidplus3DMolFile

> <Tox>
2.492

> <CAS>
55418-56-9

$$$$

  CDK

 20 22  0  0  0  0  0  0  0  0999 V2000
    0.0000    0.0000    0.0000 O   0  0  0  0  0  0  0  0  0  0  0  0
    0.1400    0.7200    0.9600 C   0  0  0  0  0  0  0  0  0  0  0  0
   -1.0600    1.4400    1.5400 C   0  0  0  0  0  0  0  0  0  0  0  0
    1.4800    0.8200    1.6000 C   0  0  0  0  0  0  0  0  0  0  0  0
   -0.9800    2.6000    2.4200 C   0  0  0  0  0  0  0  0  0  0  0  0
   -2.3200    0.9200    1.2400 C   0  0  0  0  0  0  0  0  0  0  0  0
    2.0200    2.0400    2.1200 C   0  0  0  0  0  0  0  0  0  0  0  0
    2.2600   -0.3400    1.6800 C   0  0  0  0  0  0  0  0  0  0  0  0
   -2.1600    3.0800    3.0000 C   0  0  0  0  0  0  0  0  0  0  0  0
    0.1200    3.3200    2.7200 O   0  0  0  0  0  0  0  0  0  0  0  0
   -3.5000    1.4600    1.8000 C   0  0  0  0  0  0  0  0  0  0  0  0
    1.2800    3.3000    1.9200 C   0  0  0  0  0  0  0  0  0  0  0  0
    3.2400    2.0400    2.8000 C   0  0  0  0  0  0  0  0  0  0  0  0
    3.5000   -0.3200    2.3400 C   0  0  0  0  0  0  0  0  0  0  0  0
   -3.4000    2.5200    2.7000 C   0  0  0  0  0  0  0  0  0  0  0  0
   -4.8000    0.8600    1.4400 C   0  0  0  0  0  0  0  0  0  0  0  0
    3.9800    0.8600    2.9200 C   0  0  0  0  0  0  0  0  0  0  0  0
   -5.8000    1.0000    2.5800 C   0  0  0  0  0  0  0  0  0  0  0  0
   -6.5400    1.9400    2.6400 O   0  0  0  0  0  0  0  0  0  0  0  0
   -5.8000    0.0000    3.4600 O   0  0  0  0  0  0  0  0  0  0  0  0
  1  2  2  0  0  0  0 
  2  3  1  0  0  0  0 
  2  4  1  0  0  0  0 
  3  5  2  0  0  0  0 
  3  6  1  0  0  0  0 
  7  4  2  0  0  0  0 
  4  8  1  0  0  0  0 
  5  9  1  0  0  0  0 
  5 10  1  0  0  0  0 
 11  6  2  0  0  0  0 
 12  7  1  0  0  0  0 
  7 13  1  0  0  0  0 
  8 14  2  0  0  0  0 
  9 15  2  0  0  0  0 
 10 12  1  0  0  0  0 
 15 11  1  0  0  0  0 
 11 16  1  0  0  0  0 
 17 13  2  0  0  0  0 
 14 17  1  0  0  0  0 
 18 16  1  0  0  0  0 
 19 18  2  0  0  0  0 
 18 20  1  0  0  0  0 
M  END
> <Name>
Dibenz(b,e)oxepin-2-acetic acid, 6,11-dihydro-11-oxo-

> <Source>
NIH3DMolFile

> <Tox>
3.273

> <CAS>
55453-87-7

$$$$

  CDK

 20 22  0  0  0  0  0  0  0  0999 V2000
    8.9367    0.0000    0.0000 O   0  0  0  0  0  0  0  0  0  0  0  0
    9.6401    1.2412    0.0000 C   0  0  0  0  0  0  0  0  0  0  0  0
   11.0468    1.2412    0.0000 O   0  0  0  0  0  0  0  0  0  0  0  0
    8.9367    2.4411    0.0000 C   0  0  0  0  0  0  0  0  0  0  0  0
    7.5714    2.4411    0.0000 C   0  0  0  0  0  0  0  0  0  0  0  0
    6.8680    1.2412    0.0000 C   0  0  0  0  0  0  0  0  0  0  0  0
    6.8680    3.5995    0.0000 C   0  0  0  0  0  0  0  0  0  0  0  0
    5.4613    1.2412    0.0000 C   0  0  0  0  0  0  0  0  0  0  0  0
    5.4613    3.5995    0.0000 C   0  0  0  0  0  0  0  0  0  0  0  0
    4.7994    2.4411    0.0000 C   0  0  0  0  0  0  0  0  0  0  0  0
    4.9649    4.8821    0.0000 O   0  0  0  0  0  0  0  0  0  0  0  0
    3.3513    2.1514    0.0000 C   0  0  0  0  0  0  0  0  0  0  0  0
    3.5995    5.2958    0.0000 C   0  0  0  0  0  0  0  0  0  0  0  0
    2.9789    0.8688    0.0000 O   0  0  0  0  0  0  0  0  0  0  0  0
    2.3997    3.1858    0.0000 C   0  0  0  0  0  0  0  0  0  0  0  0
    2.4824    4.5097    0.0000 C   0  0  0  0  0  0  0  0  0  0  0  0
    1.1585    2.5238    0.0000 C   0  0  0  0  0  0  0  0  0  0  0  0
    1.3240    5.2958    0.0000 C   0  0  0  0  0  0  0  0  0  0  0  0
    0.0000    3.3099    0.0000 C   0  0  0  0  0  0  0  0  0  0  0  0
    0.0827    4.7166    0.0000 C   0  0  0  0  0  0  0  0  0  0  0  0
  1  2  1  0  0  0  0 
  2  3  2  0  0  0  0 
  2  4  1  0  0  0  0 
  4  5  1  0  0  0  0 
  5  6  1  0  0  0  0 
  5  7  2  0  0  0  0 
  6  8  2  0  0  0  0 
  9  7  1  0  0  0  0 
  8 10  1  0  0  0  0 
 11  9  1  0  0  0  0 
 10  9  2  0  0  0  0 
 10 12  1  0  0  0  0 
 13 11  1  0  0  0  0 
 12 14  2  0  0  0  0 
 12 15  1  0  0  0  0 
 16 13  1  0  0  0  0 
 15 17  2  0  0  0  0 
 15 16  1  0  0  0  0 
 18 16  2  0  0  0  0 
 17 19  1  0  0  0  0 
 20 18  1  0  0  0  0 
 19 20  2  0  0  0  0 
M  END
> <Name>
Dibenz(b,e)oxepin-3-acetic acid, 6,11-dihydro-11-oxo-

> <Source>
IndexNet2DMolFile

> <Tox>
3.387

> <CAS>
55689-65-1

$$$$

  CDK

 22 24  0  0  0  0  0  0  0  0999 V2000
    5.2242   -7.2798    5.1182 Cl  0  0  0  0  0  0  0  0  0  0  0  0
    4.0818   -6.2455    4.3523 C   0  0  0  0  0  0  0  0  0  0  0  0
    4.1076   -6.0806    2.9673 C   0  0  0  0  0  0  0  0  0  0  0  0
    3.1299   -5.5744    5.1143 C   0  0  0  0  0  0  0  0  0  0  0  0
    3.1822   -5.2414    2.3304 C   0  0  0  0  0  0  0  0  0  0  0  0
    2.2053   -4.7363    4.4925 C   0  0  0  0  0  0  0  0  0  0  0  0
    2.2370   -4.5610    3.1018 C   0  0  0  0  0  0  0  0  0  0  0  0
    3.2105   -5.0692    0.8468 C   0  0  0  0  0  0  0  0  0  0  0  0
    1.2153   -3.6896    2.4858 C   0  0  0  0  0  0  0  0  0  0  0  0
    3.6315   -3.7436    0.5489 O   0  0  0  0  0  0  0  0  0  0  0  0
    0.0887   -3.7139    2.9778 O   0  0  0  0  0  0  0  0  0  0  0  0
    1.4963   -2.7729    1.3418 C   0  0  0  0  0  0  0  0  0  0  0  0
    2.6260   -2.8170    0.5122 C   0  0  0  0  0  0  0  0  0  0  0  0
    0.5523   -1.7489    1.1315 C   0  0  0  0  0  0  0  0  0  0  0  0
    2.8169   -1.8265   -0.4646 C   0  0  0  0  0  0  0  0  0  0  0  0
    0.7389   -0.7834    0.1402 C   0  0  0  0  0  0  0  0  0  0  0  0
    1.8765   -0.8177   -0.6543 C   0  0  0  0  0  0  0  0  0  0  0  0
    2.0885    0.2168   -1.7067 C   0  0  0  0  0  0  0  0  0  0  0  0
    3.3580    1.0684   -1.5008 C   0  0  0  0  0  0  0  0  0  0  0  0
    2.1336   -0.3741   -3.1204 C   0  0  0  0  0  0  0  0  0  0  0  0
    2.3145    0.5652   -4.0862 O   0  0  0  0  0  0  0  0  0  0  0  0
    2.0283   -1.5672   -3.3740 O   0  0  0  0  0  0  0  0  0  0  0  0
  1  2  1  0  0  0  0 
  3  2  2  0  0  0  0 
  2  4  1  0  0  0  0 
  5  3  1  0  0  0  0 
  6  4  2  0  0  0  0 
  5  7  2  0  0  0  0 
  5  8  1  0  0  0  0 
  7  6  1  0  0  0  0 
  7  9  1  0  0  0  0 
 10  8  1  0  0  0  0 
 11  9  2  0  0  0  0 
 12  9  1  0  0  0  0 
 10 13  1  0  0  0  0 
 12 13  2  0  0  0  0 
 12 14  1  0  0  0  0 
 13 15  1  0  0  0  0 
 16 14  2  0  0  0  0 
 17 15  2  0  0  0  0 
 17 16  1  0  0  0  0 
 17 18  1  0  0  0  0 
 18 19  1  0  0  0  0 
 18 20  1  0  0  0  0 
 21 20  1  0  0  0  0 
 22 20  2  0  0  0  0 
M  END
> <Name>
Dibenz(b,e)oxepin-3-acetic acid, 6,11-dihydro-8-chloro-alpha-methyl-11-oxo-

> <Source>
Chemidplus3DMolFile

> <Tox>
4.422

> <CAS>
55689-71-9

$$$$

  CDK

 20 21  0  0  0  0  0  0  0  0999 V2000
    1.7241    1.5212    0.0000 C   0  0  0  0  0  0  0  0  0  0  0  0
    0.8620    2.0283    0.0000 C   0  0  0  0  0  0  0  0  0  0  0  0
    2.5861    2.0283    0.0000 C   0  0  0  0  0  0  0  0  0  0  0  0
    1.7241    0.5071    0.0000 C   0  0  0  0  0  0  0  0  0  0  0  0
    0.0000    1.5212    0.0000 C   0  0  0  0  0  0  0  0  0  0  0  0
    0.8620    2.9918    0.0000 C   0  0  0  0  0  0  0  0  0  0  0  0
    3.4481    1.5212    0.0000 N   0  0  0  0  0  0  0  0  0  0  0  0
    2.5861    2.9918    0.0000 O   0  0  0  0  0  0  0  0  0  0  0  0
    0.8620    0.0000    0.0000 C   0  0  0  0  0  0  0  0  0  0  0  0
    0.0000    0.5071    0.0000 C   0  0  0  0  0  0  0  0  0  0  0  0
    4.3609    2.0283    0.0000 C   0  0  0  0  0  0  0  0  0  0  0  0
    4.3609    2.9918    0.0000 C   0  0  0  0  0  0  0  0  0  0  0  0
    5.2229    1.5212    0.0000 C   0  0  0  0  0  0  0  0  0  0  0  0
    5.2229    3.4988    0.0000 C   0  0  0  0  0  0  0  0  0  0  0  0
    6.0850    2.0283    0.0000 C   0  0  0  0  0  0  0  0  0  0  0  0
    6.0850    2.9918    0.0000 C   0  0  0  0  0  0  0  0  0  0  0  0
    5.2229    4.5130    0.0000 O   0  0  0  0  0  0  0  0  0  0  0  0
    6.0850    5.0201    0.0000 C   0  0  0  0  0  0  0  0  0  0  0  0
    6.0850    6.0342    0.0000 C   0  0  0  0  0  0  0  0  0  0  0  0
    6.9977    4.5130    0.0000 C   0  0  0  0  0  0  0  0  0  0  0  0
  2  1  2  0  0  0  0 
  1  3  1  0  0  0  0 
  1  4  1  0  0  0  0 
  5  2  1  0  0  0  0 
  2  6  1  0  0  0  0 
  3  7  1  0  0  0  0 
  3  8  2  0  0  0  0 
  4  9  2  0  0  0  0 
 10  5  2  0  0  0  0 
  7 11  1  0  0  0  0 
  9 10  1  0  0  0  0 
 11 12  2  0  0  0  0 
 13 11  1  0  0  0  0 
 12 14  1  0  0  0  0 
 15 13  2  0  0  0  0 
 14 16  2  0  0  0  0 
 14 17  1  0  0  0  0 
 16 15  1  0  0  0  0 
 17 18  1  0  0  0  0 
 18 19  1  0  0  0  0 
 18 20  1  0  0  0  0 
M  END
> <Name>
Benzamide, 2-methyl-N-(3-(1-methylethoxy)phenyl)-

> <Source>
NIST2DMolFile

> <Tox>
1.430

> <CAS>
55814-41-0

$$$$

  CDK

 15 15  0  0  0  0  0  0  0  0999 V2000
    0.0000    4.5833    0.0000 C   0  0  0  0  0  0  0  0  0  0  0  0
    1.2500    5.1249    0.0000 N   0  0  0  0  0  0  0  0  0  0  0  0
    1.3750    6.4999    0.0000 C   0  0  0  0  0  0  0  0  0  0  0  0
    2.3750    4.3333    0.0000 C   0  0  0  0  0  0  0  0  0  0  0  0
    3.6666    4.8749    0.0000 O   0  0  0  0  0  0  0  0  0  0  0  0
    2.2083    2.9166    0.0000 N   0  0  0  0  0  0  0  0  0  0  0  0
    3.3333    2.0833    0.0000 C   0  0  0  0  0  0  0  0  0  0  0  0
    4.7082    2.5000    0.0000 C   0  0  0  0  0  0  0  0  0  0  0  0
    3.3333    0.7083    0.0000 N   0  0  0  0  0  0  0  0  0  0  0  0
    5.5416    1.3750    0.0000 C   0  0  0  0  0  0  0  0  0  0  0  0
    4.7082    0.2917    0.0000 O   0  0  0  0  0  0  0  0  0  0  0  0
    6.9165    1.3750    0.0000 C   0  0  0  0  0  0  0  0  0  0  0  0
    6.9165    2.7916    0.0000 C   0  0  0  0  0  0  0  0  0  0  0  0
    8.3332    1.3750    0.0000 C   0  0  0  0  0  0  0  0  0  0  0  0
    6.9165    0.0000    0.0000 C   0  0  0  0  0  0  0  0  0  0  0  0
  1  2  1  0  0  0  0 
  2  3  1  0  0  0  0 
  2  4  1  0  0  0  0 
  4  5  2  0  0  0  0 
  4  6  1  0  0  0  0 
  6  7  1  0  0  0  0 
  7  8  1  0  0  0  0 
  7  9  2  0  0  0  0 
  8 10  2  0  0  0  0 
 11  9  1  0  0  0  0 
 10 11  1  0  0  0  0 
 10 12  1  0  0  0  0 
 12 13  1  0  0  0  0 
 12 14  1  0  0  0  0 
 12 15  1  0  0  0  0 
M  END
> <Name>
Urea, N,N-dimethyl-N'-(5-(1,1-dimethylethyl)-3-isoxazolyl)-

> <Source>
IndexNet2DMolFile

> <Tox>
2.525

> <CAS>
55861-78-4

$$$$

  CDK

 24 25  0  0  0  0  0  0  0  0999 V2000
    9.2848    0.0000    0.0000 O   0  0  0  0  0  0  0  0  0  0  0  0
    9.2848    0.9133    0.0000 C   0  0  0  0  0  0  0  0  0  0  0  0
    8.3716    1.3699    0.0000 C   0  0  0  0  0  0  0  0  0  0  0  0
   10.1981    1.3699    0.0000 O   0  0  0  0  0  0  0  0  0  0  0  0
    8.3716    0.4566    0.0000 C   0  0  0  0  0  0  0  0  0  0  0  0
    7.4076    0.9133    0.0000 O   0  0  0  0  0  0  0  0  0  0  0  0
    8.3716    2.2832    0.0000 C   0  0  0  0  0  0  0  0  0  0  0  0
   11.1621    0.9133    0.0000 C   0  0  0  0  0  0  0  0  0  0  0  0
    6.4943    1.3699    0.0000 C   0  0  0  0  0  0  0  0  0  0  0  0
    9.2848    2.7398    0.0000 C   0  0  0  0  0  0  0  0  0  0  0  0
   12.0754    1.3699    0.0000 C   0  0  0  0  0  0  0  0  0  0  0  0
    5.5810    0.9133    0.0000 C   0  0  0  0  0  0  0  0  0  0  0  0
    6.4943    2.2832    0.0000 C   0  0  0  0  0  0  0  0  0  0  0  0
    4.6678    1.3699    0.0000 C   0  0  0  0  0  0  0  0  0  0  0  0
    5.5810    2.7398    0.0000 C   0  0  0  0  0  0  0  0  0  0  0  0
    4.6678    2.2832    0.0000 C   0  0  0  0  0  0  0  0  0  0  0  0
    3.7038    2.7398    0.0000 C   0  0  0  0  0  0  0  0  0  0  0  0
    2.7905    2.2832    0.0000 C   0  0  0  0  0  0  0  0  0  0  0  0
    2.7905    1.3699    0.0000 C   0  0  0  0  0  0  0  0  0  0  0  0
    1.8773    2.7398    0.0000 C   0  0  0  0  0  0  0  0  0  0  0  0
    1.8773    0.9133    0.0000 C   0  0  0  0  0  0  0  0  0  0  0  0
    0.9133    2.2832    0.0000 C   0  0  0  0  0  0  0  0  0  0  0  0
    0.9133    1.3699    0.0000 C   0  0  0  0  0  0  0  0  0  0  0  0
    0.0000    0.9133    0.0000 Cl  0  0  0  0  0  0  0  0  0  0  0  0
  1  2  2  0  0  0  0 
  2  3  1  0  0  0  0 
  2  4  1  0  0  0  0 
  5  3  1  0  0  0  0 
  3  6  1  0  0  0  0 
  3  7  1  0  0  0  0 
  4  8  1  0  0  0  0 
  9  6  1  0  0  0  0 
  7 10  1  0  0  0  0 
  8 11  1  0  0  0  0 
  9 12  2  0  0  0  0 
 13  9  1  0  0  0  0 
 12 14  1  0  0  0  0 
 15 13  2  0  0  0  0 
 14 16  2  0  0  0  0 
 16 15  1  0  0  0  0 
 16 17  1  0  0  0  0 
 18 17  1  0  0  0  0 
 18 19  2  0  0  0  0 
 20 18  1  0  0  0  0 
 19 21  1  0  0  0  0 
 22 20  2  0  0  0  0 
 21 23  2  0  0  0  0 
 23 22  1  0  0  0  0 
 24 23  1  0  0  0  0 
M  END
> <Name>
Butanoic acid, 2-(4-((4-chlorophenyl)methyl)phenoxy)-2-methyl-, ethyl ester, (+-)-

> <Source>
NIST2DMolFile

> <Tox>
1.586

> <CAS>
55937-99-0

$$$$

  CDK

 22 23  0  0  0  0  0  0  0  0999 V2000
    7.2760    3.4981    0.0000 C   0  0  0  0  0  0  0  0  0  0  0  0
    7.2760    2.0988    0.0000 C   0  0  0  0  0  0  0  0  0  0  0  0
    8.4886    4.1977    0.0000 N   0  0  0  0  0  0  0  0  0  0  0  0
    8.4886    1.3992    0.0000 C   0  0  0  0  0  0  0  0  0  0  0  0
    6.0633    1.3992    0.0000 C   0  0  0  0  0  0  0  0  0  0  0  0
    9.7013    3.4981    0.0000 C   0  0  0  0  0  0  0  0  0  0  0  0
    9.7013    2.0988    0.0000 N   0  0  0  0  0  0  0  0  0  0  0  0
    8.4886    0.0000    0.0000 N   0  0  0  0  0  0  0  0  0  0  0  0
    4.8506    2.0988    0.0000 C   0  0  0  0  0  0  0  0  0  0  0  0
   10.9139    4.1977    0.0000 N   0  0  0  0  0  0  0  0  0  0  0  0
    4.8506    3.4981    0.0000 C   0  0  0  0  0  0  0  0  0  0  0  0
    3.6380    1.3992    0.0000 C   0  0  0  0  0  0  0  0  0  0  0  0
    3.6380    4.1977    0.0000 C   0  0  0  0  0  0  0  0  0  0  0  0
    2.4253    2.0988    0.0000 C   0  0  0  0  0  0  0  0  0  0  0  0
    2.4253    3.4981    0.0000 C   0  0  0  0  0  0  0  0  0  0  0  0
    3.6380    5.5969    0.0000 O   0  0  0  0  0  0  0  0  0  0  0  0
    1.2127    1.3992    0.0000 O   0  0  0  0  0  0  0  0  0  0  0  0
    1.2127    4.1977    0.0000 N   0  0  0  0  0  0  0  0  0  0  0  0
    2.4253    6.2965    0.0000 C   0  0  0  0  0  0  0  0  0  0  0  0
    0.0000    2.0988    0.0000 C   0  0  0  0  0  0  0  0  0  0  0  0
    0.0000    3.4981    0.0000 C   0  0  0  0  0  0  0  0  0  0  0  0
    1.2127    5.5969    0.0000 C   0  0  0  0  0  0  0  0  0  0  0  0
  1  2  2  0  0  0  0 
  1  3  1  0  0  0  0 
  2  4  1  0  0  0  0 
  2  5  1  0  0  0  0 
  6  3  2  0  0  0  0 
  4  7  2  0  0  0  0 
  4  8  1  0  0  0  0 
  5  9  1  0  0  0  0 
  7  6  1  0  0  0  0 
  6 10  1  0  0  0  0 
  9 11  2  0  0  0  0 
  9 12  1  0  0  0  0 
 11 13  1  0  0  0  0 
 14 12  2  0  0  0  0 
 13 15  2  0  0  0  0 
 13 16  1  0  0  0  0 
 15 14  1  0  0  0  0 
 14 17  1  0  0  0  0 
 15 18  1  0  0  0  0 
 16 19  1  0  0  0  0 
 17 20  1  0  0  0  0 
 18 21  1  0  0  0  0 
 18 22  1  0  0  0  0 
M  END
> <Name>
2,4-Pyrimidinediamine, 5-((4-(dimethylamino)-3,5-dimethoxyphenyl)methyl)-

> <Source>
IndexNet2DMolFile

> <Tox>
2.335

> <CAS>
56066-63-8

$$$$

  CDK

 34 39  0  0  0  0  0  0  0  0999 V2000
    2.6018    2.0014    0.0000 O   0  0  0  0  0  0  0  0  0  0  0  0
    2.6018    3.0020    0.0000 C   0  0  0  0  0  0  0  0  0  0  0  0
    3.5024    3.5024    0.0000 C   0  0  0  0  0  0  0  0  0  0  0  0
    1.7512    3.5024    0.0000 C   0  0  0  0  0  0  0  0  0  0  0  0
    4.3530    3.0020    0.0000 C   0  0  0  0  0  0  0  0  0  0  0  0
    3.5024    4.5031    0.0000 C   0  0  0  0  0  0  0  0  0  0  0  0
    1.7512    4.5031    0.0000 C   0  0  0  0  0  0  0  0  0  0  0  0
    0.9006    3.0020    0.0000 C   0  0  0  0  0  0  0  0  0  0  0  0
    4.3530    2.0014    0.0000 C   0  0  0  0  0  0  0  0  0  0  0  0
    5.2035    3.5024    0.0000 C   0  0  0  0  0  0  0  0  0  0  0  0
    4.3530    5.0034    0.0000 O   0  0  0  0  0  0  0  0  0  0  0  0
    2.6018    5.0034    0.0000 O   0  0  0  0  0  0  0  0  0  0  0  0
    0.9006    5.0034    0.0000 C   0  0  0  0  0  0  0  0  0  0  0  0
    0.0000    3.5024    0.0000 C   0  0  0  0  0  0  0  0  0  0  0  0
    3.5024    1.5010    0.0000 C   0  0  0  0  0  0  0  0  0  0  0  0
    5.2035    1.5010    0.0000 C   0  0  0  0  0  0  0  0  0  0  0  0
    6.1042    3.0020    0.0000 C   0  0  0  0  0  0  0  0  0  0  0  0
    0.0000    4.5031    0.0000 C   0  0  0  0  0  0  0  0  0  0  0  0
    3.5024    0.5003    0.0000 C   0  0  0  0  0  0  0  0  0  0  0  0
    5.2035    0.5003    0.0000 C   0  0  0  0  0  0  0  0  0  0  0  0
    6.1042    2.0014    0.0000 C   0  0  0  0  0  0  0  0  0  0  0  0
    6.9547    3.5024    0.0000 C   0  0  0  0  0  0  0  0  0  0  0  0
    4.3530    0.0000    0.0000 C   0  0  0  0  0  0  0  0  0  0  0  0
    6.9547    4.5031    0.0000 C   0  0  0  0  0  0  0  0  0  0  0  0
    7.8053    3.0020    0.0000 C   0  0  0  0  0  0  0  0  0  0  0  0
    7.8053    5.0034    0.0000 C   0  0  0  0  0  0  0  0  0  0  0  0
    8.7059    3.5024    0.0000 C   0  0  0  0  0  0  0  0  0  0  0  0
    8.7059    4.5031    0.0000 C   0  0  0  0  0  0  0  0  0  0  0  0
    9.5565    5.0034    0.0000 C   0  0  0  0  0  0  0  0  0  0  0  0
    9.5565    6.0041    0.0000 C   0  0  0  0  0  0  0  0  0  0  0  0
   10.4071    4.5031    0.0000 C   0  0  0  0  0  0  0  0  0  0  0  0
   10.4071    6.5044    0.0000 C   0  0  0  0  0  0  0  0  0  0  0  0
   11.2577    5.0034    0.0000 C   0  0  0  0  0  0  0  0  0  0  0  0
   11.2577    6.0041    0.0000 C   0  0  0  0  0  0  0  0  0  0  0  0
  1  2  1  0  0  0  0 
  3  2  2  0  0  0  0 
  2  4  1  0  0  0  0 
  5  3  1  0  0  0  0 
  6  3  1  0  0  0  0 
  7  4  2  0  0  0  0 
  4  8  1  0  0  0  0 
  9  5  1  0  0  0  0 
  5 10  1  0  0  0  0 
 11  6  2  0  0  0  0 
 12  6  1  0  0  0  0 
  7 12  1  0  0  0  0 
 13  7  1  0  0  0  0 
  8 14  2  0  0  0  0 
 15  9  1  0  0  0  0 
 16  9  2  0  0  0  0 
 10 17  1  0  0  0  0 
 18 13  2  0  0  0  0 
 14 18  1  0  0  0  0 
 19 15  2  0  0  0  0 
 16 20  1  0  0  0  0 
 21 16  1  0  0  0  0 
 22 17  1  0  0  0  0 
 17 21  1  0  0  0  0 
 23 19  1  0  0  0  0 
 20 23  2  0  0  0  0 
 22 24  2  0  0  0  0 
 25 22  1  0  0  0  0 
 24 26  1  0  0  0  0 
 27 25  2  0  0  0  0 
 26 28  2  0  0  0  0 
 28 27  1  0  0  0  0 
 29 28  1  0  0  0  0 
 29 30  1  0  0  0  0 
 31 29  2  0  0  0  0 
 30 32  2  0  0  0  0 
 33 31  1  0  0  0  0 
 32 34  1  0  0  0  0 
 34 33  2  0  0  0  0 
M  END
> <Name>
Coumarin, 3-(3-(4-biphenylyl)-1,2,3,4-tetrahydro-1-naphthyl)-4-hydroxy-

> <Source>
NIST2DMolFile

> <Tox>
5.815

> <CAS>
56073-07-5

$$$$

  CDK

 35 40  0  0  0  0  0  0  0  0999 V2000
    4.2083   -1.9629    0.0000 O   0  0  0  0  0  0  0  0  0  0  0  0
    3.8663   -3.2417    0.0000 C   0  0  0  0  0  0  0  0  0  0  0  0
    4.7882   -4.1934    0.0000 C   0  0  0  0  0  0  0  0  0  0  0  0
    2.5726   -3.5986    0.0000 C   0  0  0  0  0  0  0  0  0  0  0  0
    6.0819   -3.8514    0.0000 C   0  0  0  0  0  0  0  0  0  0  0  0
    4.4611   -5.4723    0.0000 C   0  0  0  0  0  0  0  0  0  0  0  0
    2.2305   -4.8775    0.0000 C   0  0  0  0  0  0  0  0  0  0  0  0
    1.6357   -2.6469    0.0000 C   0  0  0  0  0  0  0  0  0  0  0  0
    6.4240   -2.5726    0.0000 C   0  0  0  0  0  0  0  0  0  0  0  0
    7.0188   -4.8031    0.0000 C   0  0  0  0  0  0  0  0  0  0  0  0
    5.3830   -6.4091    0.0000 O   0  0  0  0  0  0  0  0  0  0  0  0
    3.1525   -5.8292    0.0000 O   0  0  0  0  0  0  0  0  0  0  0  0
    0.9517   -5.2195    0.0000 C   0  0  0  0  0  0  0  0  0  0  0  0
    0.3569   -2.9889    0.0000 C   0  0  0  0  0  0  0  0  0  0  0  0
    7.7028   -2.2305    0.0000 C   0  0  0  0  0  0  0  0  0  0  0  0
    5.5020   -1.6209    0.0000 C   0  0  0  0  0  0  0  0  0  0  0  0
    8.2976   -4.4611    0.0000 C   0  0  0  0  0  0  0  0  0  0  0  0
    0.0000   -4.2678    0.0000 C   0  0  0  0  0  0  0  0  0  0  0  0
    8.0597   -0.9517    0.0000 C   0  0  0  0  0  0  0  0  0  0  0  0
    8.6545   -3.1822    0.0000 C   0  0  0  0  0  0  0  0  0  0  0  0
    5.8292   -0.3420    0.0000 C   0  0  0  0  0  0  0  0  0  0  0  0
    9.2493   -5.3979    0.0000 C   0  0  0  0  0  0  0  0  0  0  0  0
    7.1377   -0.0000    0.0000 C   0  0  0  0  0  0  0  0  0  0  0  0
   10.5282   -5.0559    0.0000 C   0  0  0  0  0  0  0  0  0  0  0  0
    8.8924   -6.6916    0.0000 C   0  0  0  0  0  0  0  0  0  0  0  0
   11.4799   -5.9927    0.0000 C   0  0  0  0  0  0  0  0  0  0  0  0
    9.8441   -7.6136    0.0000 C   0  0  0  0  0  0  0  0  0  0  0  0
   11.1230   -7.2864    0.0000 C   0  0  0  0  0  0  0  0  0  0  0  0
   12.0449   -8.2233    0.0000 C   0  0  0  0  0  0  0  0  0  0  0  0
   13.3535   -7.8961    0.0000 C   0  0  0  0  0  0  0  0  0  0  0  0
   11.7178   -9.5021    0.0000 C   0  0  0  0  0  0  0  0  0  0  0  0
   14.2755   -8.8329    0.0000 C   0  0  0  0  0  0  0  0  0  0  0  0
   12.6397  -10.4538    0.0000 C   0  0  0  0  0  0  0  0  0  0  0  0
   13.9186  -10.1118    0.0000 C   0  0  0  0  0  0  0  0  0  0  0  0
   14.8703  -11.0635    0.0000 Br  0  0  0  0  0  0  0  0  0  0  0  0
  1  2  1  0  0  0  0 
  2  3  2  0  0  0  0 
  2  4  1  0  0  0  0 
  3  5  1  0  0  0  0 
  3  6  1  0  0  0  0 
  7  4  1  0  0  0  0 
  4  8  2  0  0  0  0 
  5  9  1  0  0  0  0 
  5 10  1  0  0  0  0 
  6 11  2  0  0  0  0 
  6 12  1  0  0  0  0 
 12  7  1  0  0  0  0 
  7 13  2  0  0  0  0 
  8 14  1  0  0  0  0 
  9 15  1  0  0  0  0 
  9 16  2  0  0  0  0 
 17 10  1  0  0  0  0 
 18 13  1  0  0  0  0 
 14 18  2  0  0  0  0 
 15 19  2  0  0  0  0 
 15 20  1  0  0  0  0 
 21 16  1  0  0  0  0 
 20 17  1  0  0  0  0 
 17 22  1  0  0  0  0 
 19 23  1  0  0  0  0 
 23 21  2  0  0  0  0 
 22 24  2  0  0  0  0 
 22 25  1  0  0  0  0 
 24 26  1  0  0  0  0 
 27 25  2  0  0  0  0 
 26 28  2  0  0  0  0 
 28 27  1  0  0  0  0 
 28 29  1  0  0  0  0 
 29 30  1  0  0  0  0 
 29 31  2  0  0  0  0 
 30 32  2  0  0  0  0 
 33 31  1  0  0  0  0 
 32 34  1  0  0  0  0 
 34 33  2  0  0  0  0 
 34 35  1  0  0  0  0 
M  END
> <Name>
2H-1-Benzopyran-2-one, 3-(3-(4'-bromo(1,1'-biphenyl)-4-yl)-1,2,3,4-tetrahydro-1-naphthalenyl)-4-hydroxy-

> <Source>
DSSTox2DMolFile

> <Tox>
6.515

> <CAS>
56073-10-0

$$$$

  CDK

 14 13  0  0  0  0  0  0  0  0999 V2000
    1.9616    1.4840    1.7590 S   0  0  0  0  0  0  0  0  0  0  0  0
    2.6821    0.8379   -0.1024 P   0  0  0  0  0  0  0  0  0  0  0  0
    2.4527    0.2017    2.9285 C   0  0  0  0  0  0  0  0  0  0  0  0
    1.9222   -0.5061   -0.6006 O   0  0  0  0  0  0  0  0  0  0  0  0
    4.1750    0.6462   -0.0546 O   0  0  0  0  0  0  0  0  0  0  0  0
    2.2372    2.0600   -1.3368 C   0  0  0  0  0  0  0  0  0  0  0  0
    1.9824    0.5578    4.3333 C   0  0  0  0  0  0  0  0  0  0  0  0
    0.5126   -0.5409   -0.7323 C   0  0  0  0  0  0  0  0  0  0  0  0
    2.3857   -0.4862    5.2706 N   0  0  0  0  0  0  0  0  0  0  0  0
   -0.0004   -1.9605   -0.4750 C   0  0  0  0  0  0  0  0  0  0  0  0
    1.9617   -0.1482    6.6298 C   0  0  0  0  0  0  0  0  0  0  0  0
    1.8288   -1.7789    4.8703 C   0  0  0  0  0  0  0  0  0  0  0  0
   -1.5083   -2.0321   -0.7061 C   0  0  0  0  0  0  0  0  0  0  0  0
    0.3436   -2.4294    0.9403 C   0  0  0  0  0  0  0  0  0  0  0  0
  1  2  1  0  0  0  0 
  1  3  1  0  0  0  0 
  2  4  1  0  0  0  0 
  2  5  2  0  0  0  0 
  2  6  1  0  0  0  0 
  7  3  1  0  0  0  0 
  4  8  1  0  0  0  0 
  9  7  1  0  0  0  0 
 10  8  1  0  0  0  0 
  9 11  1  0  0  0  0 
  9 12  1  0  0  0  0 
 10 13  1  0  0  0  0 
 10 14  1  0  0  0  0 
M  END
> <Name>
Phosphonothioic acid, methyl-, S-(2-(dimethylamino)ethyl) O-(2-methylpropyl) ester

> <Source>
Chemidplus3DMolFile

> <Tox>
5.404

> <CAS>
56217-65-3

$$$$

  CDK

 15 15  0  0  0  0  0  0  0  0999 V2000
    8.6457   -1.5905    4.9365 Cl  0  0  0  0  0  0  0  0  0  0  0  0
    7.3017   -0.8225    4.0580 C   0  0  0  0  0  0  0  0  0  0  0  0
    6.2100   -1.8412    3.7694 C   0  0  0  0  0  0  0  0  0  0  0  0
    5.1225   -1.2111    3.0379 N   0  0  0  0  0  0  0  0  0  0  0  0
    4.0511   -2.1722    2.7741 C   0  0  0  0  0  0  0  0  0  0  0  0
    2.9185   -1.5646    2.0141 C   0  0  0  0  0  0  0  0  0  0  0  0
    2.9371   -1.5972    0.6197 C   0  0  0  0  0  0  0  0  0  0  0  0
    1.8497   -0.9689    2.6836 C   0  0  0  0  0  0  0  0  0  0  0  0
    1.8867   -1.0341   -0.1051 C   0  0  0  0  0  0  0  0  0  0  0  0
    1.8155   -0.9287    4.0451 O   0  0  0  0  0  0  0  0  0  0  0  0
    0.7994   -0.4058    1.9588 C   0  0  0  0  0  0  0  0  0  0  0  0
    1.9051   -1.0672   -1.5246 N   0  0  0  0  0  0  0  0  0  0  0  0
    0.8178   -0.4385    0.5644 C   0  0  0  0  0  0  0  0  0  0  0  0
    0.9502   -0.5549   -2.1571 O   0  0  0  0  0  0  0  0  0  0  0  0
    2.8760   -1.6074   -2.1077 O   0  0  0  0  0  0  0  0  0  0  0  0
  1  2  1  0  0  0  0 
  3  2  1  0  0  0  0 
  4  3  1  0  0  0  0 
  4  5  1  0  0  0  0 
  5  6  1  0  0  0  0 
  6  7  1  0  0  0  0 
  6  8  2  0  0  0  0 
  7  9  2  0  0  0  0 
 10  8  1  0  0  0  0 
  8 11  1  0  0  0  0 
 12  9  1  0  0  0  0 
  9 13  1  0  0  0  0 
 11 13  2  0  0  0  0 
 14 12  1  0  0  0  0 
 15 12  2  0  0  0  0 
M  CHG  1  12   1
M  CHG  1  14  -1
M  END
> <Name>
Phenol, 2-(((2-chloroethyl)amino)methyl)-4-nitro-

> <Source>
Chemidplus3DMolFile

> <Tox>
3.965

> <CAS>
56538-00-2

$$$$

  CDK

 13 14  0  0  0  0  0  0  0  0999 V2000
    1.5807   -0.3578   -1.7529 O   0  0  0  0  0  0  0  0  0  0  0  0
    1.7860   -1.6558   -1.2036 C   0  0  0  0  0  0  0  0  0  0  0  0
    1.9632   -0.2953   -3.1116 C   0  0  0  0  0  0  0  0  0  0  0  0
    1.3602   -1.6632    0.2490 C   0  0  0  0  0  0  0  0  0  0  0  0
    1.7155    1.1091   -3.6191 C   0  0  0  0  0  0  0  0  0  0  0  0
    2.1969   -0.8019    1.0247 O   0  0  0  0  0  0  0  0  0  0  0  0
    1.5284   -2.9992    0.9314 C   0  0  0  0  0  0  0  0  0  0  0  0
    0.3182    1.4106   -3.6081 O   0  0  0  0  0  0  0  0  0  0  0  0
    2.0925    1.3143   -5.0664 C   0  0  0  0  0  0  0  0  0  0  0  0
    2.1341   -1.3474    2.3463 C   0  0  0  0  0  0  0  0  0  0  0  0
    1.5491   -2.6532    2.3163 O   0  0  0  0  0  0  0  0  0  0  0  0
    0.1649    2.4045   -4.6264 C   0  0  0  0  0  0  0  0  0  0  0  0
    1.3455    2.4747   -5.4323 O   0  0  0  0  0  0  0  0  0  0  0  0
  1  2  1  0  0  0  0 
  1  3  1  0  0  0  0 
  4  2  1  0  0  0  0 
  5  3  1  0  0  0  0 
  6  4  1  0  0  0  0 
  4  7  1  0  0  0  0 
  8  5  1  0  0  0  0 
  5  9  1  0  0  0  0 
  6 10  1  0  0  0  0 
 11  7  1  0  0  0  0 
  8 12  1  0  0  0  0 
 13  9  1  0  0  0  0 
 11 10  1  0  0  0  0 
 13 12  1  0  0  0  0 
M  END
> <Name>
1,3-Dioxolane, 4,4'-(oxybis(methylene))bis-

> <Source>
Chemidplus3DMolFile

> <Tox>
1.568

> <CAS>
56552-15-9

$$$$

  CDK

 20 21  0  0  0  0  0  0  0  0999 V2000
    6.8922   -2.6777    0.0000 C   0  0  0  0  0  0  0  0  0  0  0  0
    5.7512   -2.0060    0.0000 C   0  0  0  0  0  0  0  0  0  0  0  0
    8.0608   -2.0060    0.0000 C   0  0  0  0  0  0  0  0  0  0  0  0
    6.8922   -4.0120    0.0000 C   0  0  0  0  0  0  0  0  0  0  0  0
    4.6193   -2.6777    0.0000 C   0  0  0  0  0  0  0  0  0  0  0  0
    9.2019   -2.6777    0.0000 N   0  0  0  0  0  0  0  0  0  0  0  0
    8.0608   -0.6809    0.0000 C   0  0  0  0  0  0  0  0  0  0  0  0
    5.7512   -4.6653    0.0000 C   0  0  0  0  0  0  0  0  0  0  0  0
    8.0608   -4.6653    0.0000 C   0  0  0  0  0  0  0  0  0  0  0  0
    4.6193   -4.0120    0.0000 C   0  0  0  0  0  0  0  0  0  0  0  0
    3.4507   -2.0060    0.0000 C   0  0  0  0  0  0  0  0  0  0  0  0
    9.2019   -4.0120    0.0000 N   0  0  0  0  0  0  0  0  0  0  0  0
    9.2019   -0.0000    0.0000 O   0  0  0  0  0  0  0  0  0  0  0  0
    5.7512   -5.9996    0.0000 C   0  0  0  0  0  0  0  0  0  0  0  0
    8.0608   -5.9996    0.0000 O   0  0  0  0  0  0  0  0  0  0  0  0
    3.4507   -4.6653    0.0000 C   0  0  0  0  0  0  0  0  0  0  0  0
    3.4507   -5.9996    0.0000 O   0  0  0  0  0  0  0  0  0  0  0  0
    2.3097   -3.9936    0.0000 O   0  0  0  0  0  0  0  0  0  0  0  0
    1.1410   -4.6653    0.0000 C   0  0  0  0  0  0  0  0  0  0  0  0
    0.0000   -3.9936    0.0000 C   0  0  0  0  0  0  0  0  0  0  0  0
  1  2  2  0  0  0  0 
  1  3  1  0  0  0  0 
  1  4  1  0  0  0  0 
  2  5  1  0  0  0  0 
  6  3  2  0  0  0  0 
  3  7  1  0  0  0  0 
  4  8  2  0  0  0  0 
  4  9  1  0  0  0  0 
  5 10  2  0  0  0  0 
  5 11  1  0  0  0  0 
  6 12  1  0  0  0  0 
  7 13  1  0  0  0  0 
  8 10  1  0  0  0  0 
  8 14  1  0  0  0  0 
 12  9  1  0  0  0  0 
  9 15  2  0  0  0  0 
 10 16  1  0  0  0  0 
 16 17  2  0  0  0  0 
 16 18  1  0  0  0  0 
 18 19  1  0  0  0  0 
 19 20  1  0  0  0  0 
M  END
> <Name>
6-Phthalazinecarboxylic acid, 3,4-dihydro-1-(hydroxymethyl)-5,7-dimethyl-4-oxo-, ethyl ester

> <Source>
DSSTox2DMolFile

> <Tox>
2.198

> <CAS>
56611-65-5

$$$$

  CDK

  9  8  0  0  0  0  0  0  0  0999 V2000
    4.1977    1.2127    0.0000 N   0  0  0  0  0  0  0  0  0  0  0  0
    3.4981    2.4253    0.0000 C   0  0  0  0  0  0  0  0  0  0  0  0
    5.5969    1.2127    0.0000 N   0  0  0  0  0  0  0  0  0  0  0  0
    3.4981    0.0000    0.0000 C   0  0  0  0  0  0  0  0  0  0  0  0
    2.0988    2.4253    0.0000 O   0  0  0  0  0  0  0  0  0  0  0  0
    6.2965    0.0000    0.0000 O   0  0  0  0  0  0  0  0  0  0  0  0
    1.3992    1.2127    0.0000 C   0  0  0  0  0  0  0  0  0  0  0  0
    2.0988    0.0000    0.0000 O   0  0  0  0  0  0  0  0  0  0  0  0
    0.0000    1.2127    0.0000 C   0  0  0  0  0  0  0  0  0  0  0  0
  1  2  1  0  0  0  0 
  1  3  1  0  0  0  0 
  1  4  1  0  0  0  0 
  2  5  1  0  0  0  0 
  3  6  2  0  0  0  0 
  5  7  1  0  0  0  0 
  7  8  2  0  0  0  0 
  7  9  1  0  0  0  0 
M  END
> <Name>
Methanol, (methylnitrosoamino)-, acetate (ester)

> <Source>
IndexNet2DMolFile

> <Tox>
3.007

> <CAS>
56856-83-8

$$$$

  CDK

 12 12  0  0  0  0  0  0  0  0999 V2000
   -0.9050    1.7626   -0.1238 C   0  0  0  0  0  0  0  0  0  0  0  0
   -1.4337    0.4537   -0.1511 C   0  0  0  0  0  0  0  0  0  0  0  0
    0.4805    1.9611   -0.0380 C   0  0  0  0  0  0  0  0  0  0  0  0
   -1.6657    2.8925   -0.1723 O   0  0  0  0  0  0  0  0  0  0  0  0
   -0.5692   -0.6463   -0.1068 C   0  0  0  0  0  0  0  0  0  0  0  0
   -2.8011    0.2809   -0.3389 O   0  0  0  0  0  0  0  0  0  0  0  0
    1.3215    0.8560    0.0159 C   0  0  0  0  0  0  0  0  0  0  0  0
    0.8085   -0.4426   -0.0195 C   0  0  0  0  0  0  0  0  0  0  0  0
   -1.1660   -2.2120   -0.1577 Cl  0  0  0  0  0  0  0  0  0  0  0  0
   -3.4936   -0.0787    0.8398 C   0  0  0  0  0  0  0  0  0  0  0  0
    2.9819    1.0828    0.1215 Cl  0  0  0  0  0  0  0  0  0  0  0  0
    1.8469   -1.7578    0.0393 Cl  0  0  0  0  0  0  0  0  0  0  0  0
  1  2  1  0  0  0  0 
  1  3  2  0  0  0  0 
  1  4  1  0  0  0  0 
  2  5  2  0  0  0  0 
  2  6  1  0  0  0  0 
  7  3  1  0  0  0  0 
  5  8  1  0  0  0  0 
  5  9  1  0  0  0  0 
  6 10  1  0  0  0  0 
  8  7  2  0  0  0  0 
  7 11  1  0  0  0  0 
  8 12  1  0  0  0  0 
M  END
> <Name>
Phenol, 3,4,5-trichloro-2-methoxy-

> <Source>
DougDB3DMolFile

> <Tox>
1.883

> <CAS>
57057-83-7

$$$$

  CDK

 20 21  0  0  0  0  0  0  0  0999 V2000
    3.8403   -3.1797   -0.8644 O   0  0  0  0  0  0  0  0  0  0  0  0
    4.0422   -2.2145   -0.1006 C   0  0  0  0  0  0  0  0  0  0  0  0
    5.4701   -1.6728    0.0787 C   0  0  0  0  0  0  0  0  0  0  0  0
    2.9371   -1.5972    0.6197 C   0  0  0  0  0  0  0  0  0  0  0  0
    6.5530   -2.7052   -0.1182 C   0  0  0  0  0  0  0  0  0  0  0  0
    1.8203   -2.3432    0.9963 C   0  0  0  0  0  0  0  0  0  0  0  0
    3.0063   -0.2394    0.9316 C   0  0  0  0  0  0  0  0  0  0  0  0
    7.0856   -2.8990   -1.3831 C   0  0  0  0  0  0  0  0  0  0  0  0
    6.9952   -3.4421    0.9693 C   0  0  0  0  0  0  0  0  0  0  0  0
    1.7466   -3.6717    0.6947 O   0  0  0  0  0  0  0  0  0  0  0  0
    0.7728   -1.7315    1.6849 C   0  0  0  0  0  0  0  0  0  0  0  0
    1.9589    0.3724    1.6201 C   0  0  0  0  0  0  0  0  0  0  0  0
    8.0859   -3.8539   -1.5651 C   0  0  0  0  0  0  0  0  0  0  0  0
    7.9954   -4.3970    0.7874 C   0  0  0  0  0  0  0  0  0  0  0  0
   -0.3188   -2.4599    2.0555 O   0  0  0  0  0  0  0  0  0  0  0  0
    0.8421   -0.3737    1.9968 C   0  0  0  0  0  0  0  0  0  0  0  0
    8.6116   -4.0452   -2.8073 O   0  0  0  0  0  0  0  0  0  0  0  0
    8.5408   -4.6029   -0.4799 C   0  0  0  0  0  0  0  0  0  0  0  0
   -0.1726    0.2355    2.6714 O   0  0  0  0  0  0  0  0  0  0  0  0
    9.5174   -5.5381   -0.6446 O   0  0  0  0  0  0  0  0  0  0  0  0
  1  2  2  0  0  0  0 
  3  2  1  0  0  0  0 
  4  2  1  0  0  0  0 
  3  5  1  0  0  0  0 
  4  6  2  0  0  0  0 
  4  7  1  0  0  0  0 
  5  8  2  0  0  0  0 
  5  9  1  0  0  0  0 
 10  6  1  0  0  0  0 
  6 11  1  0  0  0  0 
  7 12  2  0  0  0  0 
  8 13  1  0  0  0  0 
  9 14  2  0  0  0  0 
 15 11  1  0  0  0  0 
 11 16  2  0  0  0  0 
 12 16  1  0  0  0  0 
 17 13  1  0  0  0  0 
 13 18  2  0  0  0  0 
 14 18  1  0  0  0  0 
 19 16  1  0  0  0  0 
 20 18  1  0  0  0  0 
M  END
> <Name>
Ethanone, 2-(3,4-dihydroxyphenyl)-1-(2,3,4-trihydroxyphenyl)-

> <Source>
Chemidplus3DMolFile

> <Tox>
2.140

> <CAS>
57165-58-9

$$$$

  CDK

 20 23  0  0  0  0  0  0  0  0999 V2000
    2.8263    4.7946    0.0000 C   0  0  0  0  0  0  0  0  0  0  0  0
    3.6843    4.3908    0.0000 C   0  0  0  0  0  0  0  0  0  0  0  0
    1.9178    4.3908    0.0000 C   0  0  0  0  0  0  0  0  0  0  0  0
    4.4413    5.0469    0.0000 C   0  0  0  0  0  0  0  0  0  0  0  0
    3.8862    3.3815    0.0000 C   0  0  0  0  0  0  0  0  0  0  0  0
    1.6655    3.4319    0.0000 C   0  0  0  0  0  0  0  0  0  0  0  0
    1.1608    5.0974    0.0000 C   0  0  0  0  0  0  0  0  0  0  0  0
    5.4002    4.7441    0.0000 C   0  0  0  0  0  0  0  0  0  0  0  0
    4.8451    3.0786    0.0000 C   0  0  0  0  0  0  0  0  0  0  0  0
    3.2805    2.6244    0.0000 C   0  0  0  0  0  0  0  0  0  0  0  0
    2.3216    2.6244    0.0000 C   0  0  0  0  0  0  0  0  0  0  0  0
    0.7066    3.1291    0.0000 C   0  0  0  0  0  0  0  0  0  0  0  0
    0.2019    4.7946    0.0000 C   0  0  0  0  0  0  0  0  0  0  0  0
    5.6021    3.7852    0.0000 C   0  0  0  0  0  0  0  0  0  0  0  0
    3.7852    1.7160    0.0000 C   0  0  0  0  0  0  0  0  0  0  0  0
    1.8169    1.7664    0.0000 C   0  0  0  0  0  0  0  0  0  0  0  0
    0.0000    3.7852    0.0000 C   0  0  0  0  0  0  0  0  0  0  0  0
    3.2805    0.8580    0.0000 N   0  0  0  0  0  0  0  0  0  0  0  0
    2.3216    0.8580    0.0000 C   0  0  0  0  0  0  0  0  0  0  0  0
    3.7347    0.0000    0.0000 C   0  0  0  0  0  0  0  0  0  0  0  0
  1  2  1  0  0  0  0 
  3  1  1  0  0  0  0 
  2  4  2  0  0  0  0 
  2  5  1  0  0  0  0 
  6  3  2  0  0  0  0 
  7  3  1  0  0  0  0 
  4  8  1  0  0  0  0 
  9  5  2  0  0  0  0 
  5 10  1  0  0  0  0 
 11  6  1  0  0  0  0 
  6 12  1  0  0  0  0 
 13  7  2  0  0  0  0 
  8 14  2  0  0  0  0 
 14  9  1  0  0  0  0 
 11 10  2  0  0  0  0 
 10 15  1  0  0  0  0 
 16 11  1  0  0  0  0 
 12 17  2  0  0  0  0 
 17 13  1  0  0  0  0 
 15 18  1  0  0  0  0 
 19 16  1  0  0  0  0 
 18 19  1  0  0  0  0 
 18 20  1  0  0  0  0 
M  END
> <Name>
1H-Dibenzo(3,4:6,7)cyclohepta(1,2-c)pyridine, 2,3,4,9-tetrahydro-2-methyl-

> <Source>
NIST2DMolFile

> <Tox>
2.674

> <CAS>
57262-94-9

$$$$

  CDK

 17 16  0  0  0  0  0  0  0  0999 V2000
   -0.5090    2.7303    0.1467 C   0  0  0  0  0  0  0  0  0  0  0  0
    0.8303    2.0797    0.5694 C   0  0  0  0  0  0  0  0  0  0  0  0
   -1.1557    1.9189   -0.8181 O   0  0  0  0  0  0  0  0  0  0  0  0
    1.7927    3.1488    1.0771 C   0  0  0  0  0  0  0  0  0  0  0  0
    0.6259    1.1617    1.6264 O   0  0  0  0  0  0  0  0  0  0  0  0
   -2.4794    1.5043   -0.4865 C   0  0  0  0  0  0  0  0  0  0  0  0
   -2.4985    0.2733    0.4459 C   0  0  0  0  0  0  0  0  0  0  0  0
   -3.1831    1.2312   -1.8115 C   0  0  0  0  0  0  0  0  0  0  0  0
   -1.8718   -0.8142   -0.2105 O   0  0  0  0  0  0  0  0  0  0  0  0
   -1.5497   -1.9073    0.6510 C   0  0  0  0  0  0  0  0  0  0  0  0
   -0.4104   -2.6764   -0.0522 C   0  0  0  0  0  0  0  0  0  0  0  0
   -2.7537   -2.8271    0.8418 C   0  0  0  0  0  0  0  0  0  0  0  0
    0.7990   -2.0045    0.2595 O   0  0  0  0  0  0  0  0  0  0  0  0
    1.9279   -2.5256   -0.4268 C   0  0  0  0  0  0  0  0  0  0  0  0
    3.1038   -1.5917   -0.1530 C   0  0  0  0  0  0  0  0  0  0  0  0
    3.0896   -0.3685   -1.0560 C   0  0  0  0  0  0  0  0  0  0  0  0
    4.2448    0.5578   -0.7491 C   0  0  0  0  0  0  0  0  0  0  0  0
  1  2  1  0  0  0  0 
  1  3  1  0  0  0  0 
  2  4  1  0  0  0  0 
  2  5  1  0  0  0  0 
  3  6  1  0  0  0  0 
  6  7  1  0  0  0  0 
  6  8  1  0  0  0  0 
  7  9  1  0  0  0  0 
  9 10  1  0  0  0  0 
 10 11  1  0  0  0  0 
 10 12  1  0  0  0  0 
 11 13  1  0  0  0  0 
 13 14  1  0  0  0  0 
 14 15  1  0  0  0  0 
 15 16  1  0  0  0  0 
 16 17  1  0  0  0  0 
M  END
> <Name>
2-Propanol, 1-(2-(2-butoxy-1-methylethoxy)-1-methylethoxy)-

> <Source>
DougDB3DMolFile

> <Tox>
2.130

> <CAS>
57499-93-1

$$$$

  CDK

 26 27  0  0  0  0  0  0  0  0999 V2000
    2.4267    3.5000    0.0000 C   0  0  0  0  0  0  0  0  0  0  0  0
    2.4267    2.1000    0.0000 C   0  0  0  0  0  0  0  0  0  0  0  0
    3.6400    4.2000    0.0000 C   0  0  0  0  0  0  0  0  0  0  0  0
    3.6400    1.4000    0.0000 C   0  0  0  0  0  0  0  0  0  0  0  0
    1.2133    1.4000    0.0000 N   0  0  0  0  0  0  0  0  0  0  0  0
    4.8533    3.5000    0.0000 C   0  0  0  0  0  0  0  0  0  0  0  0
    3.6400    5.6000    0.0000 C   0  0  0  0  0  0  0  0  0  0  0  0
    4.8533    2.1000    0.0000 C   0  0  0  0  0  0  0  0  0  0  0  0
    0.0000    2.1000    0.0000 O   0  0  0  0  0  0  0  0  0  0  0  0
    1.2133    0.0000    0.0000 O   0  0  0  0  0  0  0  0  0  0  0  0
    6.7667    4.6200    0.0000 N   0  0  0  0  0  0  0  0  0  0  0  0
    2.2400    5.6000    0.0000 F   0  0  0  0  0  0  0  0  0  0  0  0
    5.0400    5.6000    0.0000 F   0  0  0  0  0  0  0  0  0  0  0  0
    3.6400    7.4200    0.0000 F   0  0  0  0  0  0  0  0  0  0  0  0
    6.0667    1.4000    0.0000 N   0  0  0  0  0  0  0  0  0  0  0  0
    7.1867    6.8600    0.0000 C   0  0  0  0  0  0  0  0  0  0  0  0
    7.2800    2.1000    0.0000 O   0  0  0  0  0  0  0  0  0  0  0  0
    6.0667    0.0000    0.0000 O   0  0  0  0  0  0  0  0  0  0  0  0
    8.4933    7.3267    0.0000 C   0  0  0  0  0  0  0  0  0  0  0  0
    6.1133    7.7467    0.0000 C   0  0  0  0  0  0  0  0  0  0  0  0
    8.7267    8.6800    0.0000 C   0  0  0  0  0  0  0  0  0  0  0  0
    9.5667    6.4400    0.0000 Br  0  0  0  0  0  0  0  0  0  0  0  0
    6.3467    9.1000    0.0000 C   0  0  0  0  0  0  0  0  0  0  0  0
    4.8067    7.2800    0.0000 Br  0  0  0  0  0  0  0  0  0  0  0  0
    7.6533    9.6133    0.0000 C   0  0  0  0  0  0  0  0  0  0  0  0
    7.8867   10.9667    0.0000 Br  0  0  0  0  0  0  0  0  0  0  0  0
  1  2  2  0  0  0  0 
  1  3  1  0  0  0  0 
  2  4  1  0  0  0  0 
  2  5  1  0  0  0  0 
  6  3  2  0  0  0  0 
  3  7  1  0  0  0  0 
  4  8  2  0  0  0  0 
  5  9  1  0  0  0  0 
  5 10  2  0  0  0  0 
  8  6  1  0  0  0  0 
  6 11  1  0  0  0  0 
  7 12  1  0  0  0  0 
  7 13  1  0  0  0  0 
  7 14  1  0  0  0  0 
  8 15  1  0  0  0  0 
 11 16  1  0  0  0  0 
 15 17  1  0  0  0  0 
 15 18  2  0  0  0  0 
 16 19  2  0  0  0  0 
 16 20  1  0  0  0  0 
 19 21  1  0  0  0  0 
 19 22  1  0  0  0  0 
 23 20  2  0  0  0  0 
 20 24  1  0  0  0  0 
 21 25  2  0  0  0  0 
 25 23  1  0  0  0  0 
 25 26  1  0  0  0  0 
M  CHG  1   5   1
M  CHG  1   9  -1
M  CHG  1  15   1
M  CHG  1  17  -1
M  END
> <Name>
Benzenamine, 2,4-dinitro-N-(2,4,6-tribromophenyl)-6-(trifluoromethyl)-

> <Source>
IndexNet2DMolFile

> <Tox>
5.105

> <CAS>
57729-86-9

$$$$

  CDK

 16 17  0  0  0  0  0  0  0  0999 V2000
    0.0000    6.5297    0.0000 O   0  0  0  0  0  0  0  0  0  0  0  0
    0.6996    5.3170    0.0000 C   0  0  0  0  0  0  0  0  0  0  0  0
    0.0000    4.1044    0.0000 O   0  0  0  0  0  0  0  0  0  0  0  0
    2.0988    5.3170    0.0000 C   0  0  0  0  0  0  0  0  0  0  0  0
    2.7984    6.5297    0.0000 C   0  0  0  0  0  0  0  0  0  0  0  0
    2.7984    4.1044    0.0000 C   0  0  0  0  0  0  0  0  0  0  0  0
    4.1977    6.5297    0.0000 C   0  0  0  0  0  0  0  0  0  0  0  0
    4.1977    4.1044    0.0000 C   0  0  0  0  0  0  0  0  0  0  0  0
    1.4925    3.6380    0.0000 O   0  0  0  0  0  0  0  0  0  0  0  0
    3.0316    2.7518    0.0000 C   0  0  0  0  0  0  0  0  0  0  0  0
    4.8973    5.3170    0.0000 C   0  0  0  0  0  0  0  0  0  0  0  0
    4.3376    2.2388    0.0000 C   0  0  0  0  0  0  0  0  0  0  0  0
    1.9589    1.8190    0.0000 C   0  0  0  0  0  0  0  0  0  0  0  0
    4.6174    0.8862    0.0000 C   0  0  0  0  0  0  0  0  0  0  0  0
    2.1921    0.4664    0.0000 C   0  0  0  0  0  0  0  0  0  0  0  0
    3.5447    0.0000    0.0000 C   0  0  0  0  0  0  0  0  0  0  0  0
  1  2  1  0  0  0  0 
  2  3  2  0  0  0  0 
  2  4  1  0  0  0  0 
  4  5  1  0  0  0  0 
  4  6  1  0  0  0  0 
  5  7  1  0  0  0  0 
  8  6  1  0  0  0  0 
  6  9  1  0  0  0  0 
  6 10  1  0  0  0  0 
  7 11  1  0  0  0  0 
 11  8  1  0  0  0  0 
 10 12  2  0  0  0  0 
 10 13  1  0  0  0  0 
 12 14  1  0  0  0  0 
 15 13  2  0  0  0  0 
 14 16  2  0  0  0  0 
 16 15  1  0  0  0  0 
M  END
> <Name>
Cyclohexanecarboxylic acid, 2-hydroxy-2-phenyl-, cis-

> <Source>
IndexNet2DMolFile

> <Tox>
2.147

> <CAS>
57808-63-6

$$$$

  CDK

 30 32  0  0  0  0  0  0  0  0999 V2000
    0.0000    0.0000    0.0000 N   0  0  0  0  0  0  0  0  0  0  0  0
    0.5400    0.5200    0.8800 C   0  0  0  0  0  0  0  0  0  0  0  0
    1.2000    1.2000    2.0000 C   0  0  0  0  0  0  0  0  0  0  0  0
    0.9800    0.5200    3.3000 C   0  0  0  0  0  0  0  0  0  0  0  0
    2.6600    1.3800    1.7600 C   0  0  0  0  0  0  0  0  0  0  0  0
    0.9800    1.2600    4.5200 C   0  0  0  0  0  0  0  0  0  0  0  0
    0.7600   -0.8600    3.3200 C   0  0  0  0  0  0  0  0  0  0  0  0
    3.5200    0.2600    1.7800 C   0  0  0  0  0  0  0  0  0  0  0  0
    3.1800    2.6600    1.5400 C   0  0  0  0  0  0  0  0  0  0  0  0
    0.7800    0.5800    5.7400 C   0  0  0  0  0  0  0  0  0  0  0  0
    1.2400    2.9600    4.5400 Cl  0  0  0  0  0  0  0  0  0  0  0  0
    0.5600   -1.5400    4.5400 C   0  0  0  0  0  0  0  0  0  0  0  0
    4.9000    0.4200    1.5600 C   0  0  0  0  0  0  0  0  0  0  0  0
    4.5600    2.8200    1.3400 C   0  0  0  0  0  0  0  0  0  0  0  0
    0.5600   -0.8200    5.7400 C   0  0  0  0  0  0  0  0  0  0  0  0
    0.3400   -3.0000    4.5200 C   0  0  0  0  0  0  0  0  0  0  0  0
    5.4200    1.7000    1.3400 C   0  0  0  0  0  0  0  0  0  0  0  0
    0.3600   -1.4400    6.9600 N   0  0  0  0  0  0  0  0  0  0  0  0
    7.1000    1.9200    1.0800 Cl  0  0  0  0  0  0  0  0  0  0  0  0
   -0.7800   -2.1400    7.1600 C   0  0  0  0  0  0  0  0  0  0  0  0
   -1.6200   -2.2200    6.3000 O   0  0  0  0  0  0  0  0  0  0  0  0
   -0.9800   -2.8200    8.4800 C   0  0  0  0  0  0  0  0  0  0  0  0
   -1.6000   -4.0800    8.5600 C   0  0  0  0  0  0  0  0  0  0  0  0
   -0.5400   -2.1800    9.6600 C   0  0  0  0  0  0  0  0  0  0  0  0
   -2.0000   -4.6800    7.4600 O   0  0  0  0  0  0  0  0  0  0  0  0
   -1.7800   -4.7000    9.8200 C   0  0  0  0  0  0  0  0  0  0  0  0
   -0.7200   -2.8000   10.9200 C   0  0  0  0  0  0  0  0  0  0  0  0
   -2.6800   -6.5600    9.9600 I   0  0  0  0  0  0  0  0  0  0  0  0
   -1.3200   -4.0600   10.9800 C   0  0  0  0  0  0  0  0  0  0  0  0
   -0.0600   -1.8800   12.6200 I   0  0  0  0  0  0  0  0  0  0  0  0
  1  2  3  0  0  0  0 
  2  3  1  0  0  0  0 
  3  4  1  0  0  0  0 
  3  5  1  0  0  0  0 
  4  6  2  0  0  0  0 
  4  7  1  0  0  0  0 
  5  8  2  0  0  0  0 
  5  9  1  0  0  0  0 
  6 10  1  0  0  0  0 
  6 11  1  0  0  0  0 
 12  7  2  0  0  0  0 
  8 13  1  0  0  0  0 
 14  9  2  0  0  0  0 
 10 15  2  0  0  0  0 
 15 12  1  0  0  0  0 
 12 16  1  0  0  0  0 
 13 17  2  0  0  0  0 
 17 14  1  0  0  0  0 
 15 18  1  0  0  0  0 
 17 19  1  0  0  0  0 
 18 20  1  0  0  0  0 
 20 21  2  0  0  0  0 
 20 22  1  0  0  0  0 
 22 23  2  0  0  0  0 
 22 24  1  0  0  0  0 
 23 25  1  0  0  0  0 
 23 26  1  0  0  0  0 
 27 24  2  0  0  0  0 
 26 28  1  0  0  0  0 
 26 29  2  0  0  0  0 
 29 27  1  0  0  0  0 
 27 30  1  0  0  0  0 
M  END
> <Name>
Benzamide, N-(5-chloro-4-((4-chlorophenyl)cyanomethyl)-2-methylphenyl)-2-hydroxy-3,5-diiodo-

> <Source>
NIH3DMolFile

> <Tox>
3.403

> <CAS>
57808-65-8

$$$$

  CDK

 20 20  0  0  0  0  0  0  0  0999 V2000
    3.4691   -3.3101    0.0000 N   0  0  0  0  0  0  0  0  0  0  0  0
    2.3150   -3.9735    0.0000 C   0  0  0  0  0  0  0  0  0  0  0  0
    4.6162   -3.9735    0.0000 C   0  0  0  0  0  0  0  0  0  0  0  0
    3.4691   -1.9971    0.0000 C   0  0  0  0  0  0  0  0  0  0  0  0
    2.3150   -5.3142    0.0000 C   0  0  0  0  0  0  0  0  0  0  0  0
    1.1541   -3.3101    0.0000 C   0  0  0  0  0  0  0  0  0  0  0  0
    4.6162   -5.3142    0.0000 O   0  0  0  0  0  0  0  0  0  0  0  0
    5.7565   -3.3101    0.0000 C   0  0  0  0  0  0  0  0  0  0  0  0
    4.6162   -1.3268    0.0000 C   0  0  0  0  0  0  0  0  0  0  0  0
    2.3150   -1.3268    0.0000 C   0  0  0  0  0  0  0  0  0  0  0  0
    1.1541   -5.9707    0.0000 C   0  0  0  0  0  0  0  0  0  0  0  0
    3.4691   -5.9707    0.0000 C   0  0  0  0  0  0  0  0  0  0  0  0
    0.0000   -3.9735    0.0000 C   0  0  0  0  0  0  0  0  0  0  0  0
    1.1541   -1.9971    0.0000 C   0  0  0  0  0  0  0  0  0  0  0  0
    6.9105   -3.9735    0.0000 O   0  0  0  0  0  0  0  0  0  0  0  0
    4.6162   -0.0000    0.0000 O   0  0  0  0  0  0  0  0  0  0  0  0
    5.7565   -1.9971    0.0000 O   0  0  0  0  0  0  0  0  0  0  0  0
    0.0000   -5.3142    0.0000 C   0  0  0  0  0  0  0  0  0  0  0  0
    6.9105   -5.3142    0.0000 C   0  0  0  0  0  0  0  0  0  0  0  0
    6.9105   -1.3268    0.0000 C   0  0  0  0  0  0  0  0  0  0  0  0
  1  2  1  0  0  0  0 
  1  3  1  0  0  0  0 
  1  4  1  0  0  0  0 
  2  5  2  0  0  0  0 
  2  6  1  0  0  0  0 
  3  7  2  0  0  0  0 
  3  8  1  0  0  0  0 
  4  9  1  0  0  0  0 
  4 10  1  0  0  0  0 
  5 11  1  0  0  0  0 
  5 12  1  0  0  0  0 
  6 13  2  0  0  0  0 
  6 14  1  0  0  0  0 
  8 15  1  0  0  0  0 
  9 16  2  0  0  0  0 
  9 17  1  0  0  0  0 
 18 11  2  0  0  0  0 
 18 13  1  0  0  0  0 
 15 19  1  0  0  0  0 
 17 20  1  0  0  0  0 
M  END
> <Name>
DL-Alanine, N-(2,6-dimethylphenyl)-N-(methoxyacetyl)-, methyl ester (9CI)

> <Source>
DSSTox2DMolFile

> <Tox>
2.693

> <CAS>
57837-19-1

$$$$

  CDK

 19 20  0  0  0  0  0  0  0  0999 V2000
    1.5203    0.8615    0.0000 C   0  0  0  0  0  0  0  0  0  0  0  0
    0.5068    0.8615    0.0000 C   0  0  0  0  0  0  0  0  0  0  0  0
    2.0270    1.7230    0.0000 C   0  0  0  0  0  0  0  0  0  0  0  0
    2.0270    0.0000    0.0000 C   0  0  0  0  0  0  0  0  0  0  0  0
    0.0000    1.7230    0.0000 C   0  0  0  0  0  0  0  0  0  0  0  0
    1.5203    2.5844    0.0000 C   0  0  0  0  0  0  0  0  0  0  0  0
    3.0405    1.7230    0.0000 N   0  0  0  0  0  0  0  0  0  0  0  0
    0.5068    2.5844    0.0000 C   0  0  0  0  0  0  0  0  0  0  0  0
    2.0270    3.4966    0.0000 C   0  0  0  0  0  0  0  0  0  0  0  0
    3.4966    0.9122    0.0000 C   0  0  0  0  0  0  0  0  0  0  0  0
    3.4966    2.5844    0.0000 C   0  0  0  0  0  0  0  0  0  0  0  0
    3.0405    0.0507    0.0000 O   0  0  0  0  0  0  0  0  0  0  0  0
    4.5101    0.9122    0.0000 C   0  0  0  0  0  0  0  0  0  0  0  0
    4.5101    2.8885    0.0000 C   0  0  0  0  0  0  0  0  0  0  0  0
    2.9898    3.3952    0.0000 C   0  0  0  0  0  0  0  0  0  0  0  0
    5.0168    0.0507    0.0000 Cl  0  0  0  0  0  0  0  0  0  0  0  0
    4.5101    3.9020    0.0000 O   0  0  0  0  0  0  0  0  0  0  0  0
    5.3209    2.3311    0.0000 O   0  0  0  0  0  0  0  0  0  0  0  0
    3.4966    4.2060    0.0000 C   0  0  0  0  0  0  0  0  0  0  0  0
  2  1  2  0  0  0  0 
  1  3  1  0  0  0  0 
  1  4  1  0  0  0  0 
  5  2  1  0  0  0  0 
  3  6  2  0  0  0  0 
  3  7  1  0  0  0  0 
  8  5  2  0  0  0  0 
  6  8  1  0  0  0  0 
  6  9  1  0  0  0  0 
  7 10  1  0  0  0  0 
  7 11  1  0  0  0  0 
 12 10  2  0  0  0  0 
 10 13  1  0  0  0  0 
 11 14  1  0  0  0  0 
 15 11  1  0  0  0  0 
 13 16  1  0  0  0  0 
 14 17  1  0  0  0  0 
 14 18  2  0  0  0  0 
 19 15  1  0  0  0  0 
 17 19  1  0  0  0  0 
M  END
> <Name>
2-Chloro-N-(2,6-dimethylphenyl)-N-(tetrahydro-2-oxo-3-furyl)acetamide

> <Source>
NIST2DMolFile

> <Tox>
2.035

> <CAS>
58810-48-3

$$$$

  CDK

 12 13  0  0  0  0  0  0  0  0999 V2000
    0.7672   -3.0810   -1.8361 S   0  0  0  0  0  0  0  0  0  0  0  0
    0.5545   -1.4837   -2.5447 C   0  0  0  0  0  0  0  0  0  0  0  0
    0.3712   -2.7059   -0.1207 C   0  0  0  0  0  0  0  0  0  0  0  0
    0.0292   -0.4677   -1.9535 N   0  0  0  0  0  0  0  0  0  0  0  0
    0.9935   -1.3435   -3.9574 C   0  0  0  0  0  0  0  0  0  0  0  0
   -0.7488   -1.8410   -0.0144 O   0  0  0  0  0  0  0  0  0  0  0  0
   -0.4365   -0.5623   -0.5707 C   0  0  0  0  0  0  0  0  0  0  0  0
    0.3354   -0.4547   -4.8075 C   0  0  0  0  0  0  0  0  0  0  0  0
    2.0636   -2.1009   -4.4335 C   0  0  0  0  0  0  0  0  0  0  0  0
    0.7473   -0.3234   -6.1338 C   0  0  0  0  0  0  0  0  0  0  0  0
    2.4757   -1.9696   -5.7597 C   0  0  0  0  0  0  0  0  0  0  0  0
    1.8175   -1.0808   -6.6097 C   0  0  0  0  0  0  0  0  0  0  0  0
  1  2  1  0  0  0  0 
  1  3  1  0  0  0  0 
  4  2  2  0  0  0  0 
  5  2  1  0  0  0  0 
  6  3  1  0  0  0  0 
  4  7  1  0  0  0  0 
  5  8  2  0  0  0  0 
  5  9  1  0  0  0  0 
  6  7  1  0  0  0  0 
  8 10  1  0  0  0  0 
  9 11  2  0  0  0  0 
 10 12  2  0  0  0  0 
 11 12  1  0  0  0  0 
M  END
> <Name>
6H-1,3,5-Oxathiazine, 4-phenyl-

> <Source>
Chemidplus3DMolFile

> <Tox>
2.441

> <CAS>
58955-84-3

$$$$

  CDK

 27 28  0  0  0  0  0  0  0  0999 V2000
   -6.4413    3.6853   -2.9873 F   0  0  0  0  0  0  0  0  0  0  0  0
   -5.9160    2.6247   -2.3059 C   0  0  0  0  0  0  0  0  0  0  0  0
   -5.9678    1.5777   -3.1810 F   0  0  0  0  0  0  0  0  0  0  0  0
   -6.8222    2.3314   -1.3288 F   0  0  0  0  0  0  0  0  0  0  0  0
   -4.5500    2.8811   -1.7627 C   0  0  0  0  0  0  0  0  0  0  0  0
   -3.9737    1.8674   -1.0770 N   0  0  0  0  0  0  0  0  0  0  0  0
   -3.9534    4.1066   -1.9793 C   0  0  0  0  0  0  0  0  0  0  0  0
   -2.7407    2.0606   -0.5717 C   0  0  0  0  0  0  0  0  0  0  0  0
   -2.6829    4.3027   -1.4574 C   0  0  0  0  0  0  0  0  0  0  0  0
   -2.0496    3.2787   -0.7404 C   0  0  0  0  0  0  0  0  0  0  0  0
   -2.1111    1.0436    0.1407 C   0  0  0  0  0  0  0  0  0  0  0  0
   -2.0336    5.6304   -1.6925 C   0  0  0  0  0  0  0  0  0  0  0  0
   -0.7636    3.4458   -0.1992 C   0  0  0  0  0  0  0  0  0  0  0  0
   -0.8325    1.2095    0.6788 C   0  0  0  0  0  0  0  0  0  0  0  0
   -2.7975   -0.2705    0.3512 C   0  0  0  0  0  0  0  0  0  0  0  0
   -2.8045    6.6384   -1.0257 O   0  0  0  0  0  0  0  0  0  0  0  0
   -1.9003    6.0205   -3.1797 C   0  0  0  0  0  0  0  0  0  0  0  0
   -0.1576    2.4119    0.5089 C   0  0  0  0  0  0  0  0  0  0  0  0
   -2.0535   -1.1615    1.0667 F   0  0  0  0  0  0  0  0  0  0  0  0
   -3.9780   -0.1622    1.0248 F   0  0  0  0  0  0  0  0  0  0  0  0
   -3.0957   -0.8942   -0.8230 F   0  0  0  0  0  0  0  0  0  0  0  0
   -1.0991    5.0009   -3.9898 C   0  0  0  0  0  0  0  0  0  0  0  0
    0.2457    4.8663   -3.4406 N   0  0  0  0  0  0  0  0  0  0  0  0
    1.0257    3.9060   -4.2078 C   0  0  0  0  0  0  0  0  0  0  0  0
    0.3237    2.5453   -4.1453 C   0  0  0  0  0  0  0  0  0  0  0  0
    1.1052    4.3904   -5.6594 C   0  0  0  0  0  0  0  0  0  0  0  0
    2.4336    3.8004   -3.6097 C   0  0  0  0  0  0  0  0  0  0  0  0
  1  2  1  0  0  0  0 
  3  2  1  0  0  0  0 
  4  2  1  0  0  0  0 
  5  2  1  0  0  0  0 
  6  5  2  0  0  0  0 
  7  5  1  0  0  0  0 
  6  8  1  0  0  0  0 
  9  7  2  0  0  0  0 
 10  8  2  0  0  0  0 
  8 11  1  0  0  0  0 
 12  9  1  0  0  0  0 
  9 10  1  0  0  0  0 
 10 13  1  0  0  0  0 
 11 14  2  0  0  0  0 
 11 15  1  0  0  0  0 
 16 12  1  0  0  0  0 
 17 12  1  0  0  0  0 
 13 18  2  0  0  0  0 
 14 18  1  0  0  0  0 
 19 15  1  0  0  0  0 
 20 15  1  0  0  0  0 
 21 15  1  0  0  0  0 
 17 22  1  0  0  0  0 
 23 22  1  0  0  0  0 
 23 24  1  0  0  0  0 
 24 25  1  0  0  0  0 
 24 26  1  0  0  0  0 
 24 27  1  0  0  0  0 
M  END
> <Name>
Quinolinemethanol, 2,8-bis(trifluoromethyl)-alpha-(2-((1,1-dimethylethyl)amino)ethyl)-, phosphate, (+-)-

> <Source>
Chemidplus3DMolFile

> <Tox>
2.276

> <CAS>
59227-74-6

$$$$

  CDK

 11 11  0  0  0  0  0  0  0  0999 V2000
   -0.0567    1.8670   -1.5207 S   0  0  0  0  0  0  0  0  0  0  0  0
    0.6521    0.3761   -0.7940 C   0  0  0  0  0  0  0  0  0  0  0  0
   -1.0971    1.0131   -2.7212 C   0  0  0  0  0  0  0  0  0  0  0  0
    0.7748   -0.6649   -1.8613 C   0  0  0  0  0  0  0  0  0  0  0  0
   -0.2466   -0.4845   -3.2665 S   0  0  0  0  0  0  0  0  0  0  0  0
    1.5751   -1.6697   -1.7482 N   0  0  0  0  0  0  0  0  0  0  0  0
    2.2384   -1.5727   -0.5172 O   0  0  0  0  0  0  0  0  0  0  0  0
    3.0906   -2.6352   -0.3876 C   0  0  0  0  0  0  0  0  0  0  0  0
    3.2435   -3.5225   -1.2217 O   0  0  0  0  0  0  0  0  0  0  0  0
    3.7507   -2.5519    0.8212 N   0  0  0  0  0  0  0  0  0  0  0  0
    4.7258   -3.5206    1.2652 C   0  0  0  0  0  0  0  0  0  0  0  0
  1  2  1  0  0  0  0 
  1  3  1  0  0  0  0 
  2  4  1  0  0  0  0 
  5  3  1  0  0  0  0 
  5  4  1  0  0  0  0 
  6  4  2  0  0  0  0 
  7  6  1  0  0  0  0 
  7  8  1  0  0  0  0 
  9  8  2  0  0  0  0 
 10  8  1  0  0  0  0 
 10 11  1  0  0  0  0 
M  END
> <Name>
1,3-Dithiolan-4-one, O-((methylamino)carbonyl)oxime

> <Source>
Chemidplus3DMolFile

> <Tox>
4.170

> <CAS>
59375-65-4

$$$$

  CDK

 13 13  0  0  0  0  0  0  0  0999 V2000
   -0.8942   -1.8634   -2.1253 S   0  0  0  0  0  0  0  0  0  0  0  0
   -0.1388   -2.9849   -0.9052 C   0  0  0  0  0  0  0  0  0  0  0  0
    0.2504   -0.4461   -2.1134 C   0  0  0  0  0  0  0  0  0  0  0  0
    1.3565   -2.8039   -0.8171 C   0  0  0  0  0  0  0  0  0  0  0  0
   -0.8360   -2.9108    0.4490 C   0  0  0  0  0  0  0  0  0  0  0  0
    0.7994   -0.1091   -0.7396 C   0  0  0  0  0  0  0  0  0  0  0  0
    2.0213   -1.3192   -0.1690 S   0  0  0  0  0  0  0  0  0  0  0  0
    2.1827   -3.7261   -1.1879 N   0  0  0  0  0  0  0  0  0  0  0  0
    1.4420   -4.8236   -1.6450 O   0  0  0  0  0  0  0  0  0  0  0  0
    2.3083   -5.8062   -2.0401 C   0  0  0  0  0  0  0  0  0  0  0  0
    3.5322   -5.7277   -1.9941 O   0  0  0  0  0  0  0  0  0  0  0  0
    1.5934   -6.8958   -2.4937 N   0  0  0  0  0  0  0  0  0  0  0  0
    2.2110   -8.1070   -2.9818 C   0  0  0  0  0  0  0  0  0  0  0  0
  1  2  1  0  0  0  0 
  1  3  1  0  0  0  0 
  2  4  1  0  0  0  0 
  2  5  1  0  0  0  0 
  3  6  1  0  0  0  0 
  7  4  1  0  0  0  0 
  8  4  2  0  0  0  0 
  7  6  1  0  0  0  0 
  9  8  1  0  0  0  0 
  9 10  1  0  0  0  0 
 11 10  2  0  0  0  0 
 12 10  1  0  0  0  0 
 12 13  1  0  0  0  0 
M  END
> <Name>
1,4-Dithian-2-one, 3-methyl-, O-((methylamino)carbonyl)oxime

> <Source>
Chemidplus3DMolFile

> <Tox>
5.001

> <CAS>
59375-71-2

$$$$

  CDK

 23 26  0  0  0  0  0  0  0  0999 V2000
    6.5097   -5.5798    0.0000 C   0  0  0  0  0  0  0  0  0  0  0  0
    5.2181   -5.9845    0.0000 C   0  0  0  0  0  0  0  0  0  0  0  0
    6.7939   -4.3054    0.0000 C   0  0  0  0  0  0  0  0  0  0  0  0
    4.9339   -7.2675    0.0000 Cl  0  0  0  0  0  0  0  0  0  0  0  0
    4.2795   -5.0459    0.0000 C   0  0  0  0  0  0  0  0  0  0  0  0
    5.8467   -3.3582    0.0000 C   0  0  0  0  0  0  0  0  0  0  0  0
    4.5637   -3.7715    0.0000 C   0  0  0  0  0  0  0  0  0  0  0  0
    6.3203   -2.1441    0.0000 N   0  0  0  0  0  0  0  0  0  0  0  0
    3.4615   -3.0138    0.0000 C   0  0  0  0  0  0  0  0  0  0  0  0
    5.6572   -0.9902    0.0000 C   0  0  0  0  0  0  0  0  0  0  0  0
    7.6205   -1.8685    0.0000 C   0  0  0  0  0  0  0  0  0  0  0  0
    3.3840   -1.7049    0.0000 N   0  0  0  0  0  0  0  0  0  0  0  0
    2.3077   -3.6768    0.0000 C   0  0  0  0  0  0  0  0  0  0  0  0
    4.3312   -0.7664    0.0000 C   0  0  0  0  0  0  0  0  0  0  0  0
    6.5528   -0.0000    0.0000 C   0  0  0  0  0  0  0  0  0  0  0  0
    7.7669   -0.5425    0.0000 N   0  0  0  0  0  0  0  0  0  0  0  0
    8.6107   -2.7640    0.0000 C   0  0  0  0  0  0  0  0  0  0  0  0
    2.3077   -5.0114    0.0000 C   0  0  0  0  0  0  0  0  0  0  0  0
    1.1538   -3.0051    0.0000 C   0  0  0  0  0  0  0  0  0  0  0  0
    1.1538   -5.6745    0.0000 C   0  0  0  0  0  0  0  0  0  0  0  0
    0.0000   -3.6682    0.0000 C   0  0  0  0  0  0  0  0  0  0  0  0
    1.1538   -1.6791    0.0000 F   0  0  0  0  0  0  0  0  0  0  0  0
    0.0000   -5.0114    0.0000 C   0  0  0  0  0  0  0  0  0  0  0  0
  1  2  2  0  0  0  0 
  1  3  1  0  0  0  0 
  2  4  1  0  0  0  0 
  2  5  1  0  0  0  0 
  6  3  2  0  0  0  0 
  5  7  2  0  0  0  0 
  7  6  1  0  0  0  0 
  6  8  1  0  0  0  0 
  7  9  1  0  0  0  0 
  8 10  1  0  0  0  0 
  8 11  1  0  0  0  0 
 12  9  2  0  0  0  0 
  9 13  1  0  0  0  0 
 10 14  1  0  0  0  0 
 10 15  2  0  0  0  0 
 16 11  2  0  0  0  0 
 11 17  1  0  0  0  0 
 14 12  1  0  0  0  0 
 13 18  2  0  0  0  0 
 13 19  1  0  0  0  0 
 15 16  1  0  0  0  0 
 18 20  1  0  0  0  0 
 21 19  2  0  0  0  0 
 19 22  1  0  0  0  0 
 20 23  2  0  0  0  0 
 23 21  1  0  0  0  0 
M  END
> <Name>
4H-Imidazo(1,5-a)(1,4)benzodiazepine, 8-chloro-6-(2-fluorophenyl)-1-methyl-

> <Source>
DSSTox2DMolFile

> <Tox>
3.180

> <CAS>
59467-70-8

$$$$

  CDK

 21 21  0  0  0  0  0  0  0  0999 V2000
    6.5597    1.4464   -0.7933 S   0  0  0  0  0  0  0  0  0  0  0  0
    5.9079    1.7593   -2.6026 P   0  0  0  0  0  0  0  0  0  0  0  0
    4.9726    3.0721   -2.8254 O   0  0  0  0  0  0  0  0  0  0  0  0
    7.0309    1.9607   -3.7621 O   0  0  0  0  0  0  0  0  0  0  0  0
    4.9946    0.5947   -3.2542 O   0  0  0  0  0  0  0  0  0  0  0  0
    5.4233    4.3405   -2.3808 C   0  0  0  0  0  0  0  0  0  0  0  0
    7.8574    0.8720   -4.1382 C   0  0  0  0  0  0  0  0  0  0  0  0
    3.8888    0.0632   -2.6434 C   0  0  0  0  0  0  0  0  0  0  0  0
    4.3653    5.3819   -2.7115 C   0  0  0  0  0  0  0  0  0  0  0  0
    8.8088    1.3319   -5.2322 C   0  0  0  0  0  0  0  0  0  0  0  0
    2.7916    0.7242   -2.2743 C   0  0  0  0  0  0  0  0  0  0  0  0
    3.9067   -1.3766   -2.3637 C   0  0  0  0  0  0  0  0  0  0  0  0
    4.7871    6.7737   -2.2760 C   0  0  0  0  0  0  0  0  0  0  0  0
    9.7190    0.2096   -5.6978 C   0  0  0  0  0  0  0  0  0  0  0  0
    2.6033    2.0770   -2.4581 O   0  0  0  0  0  0  0  0  0  0  0  0
    1.6712   -0.0030   -1.6177 C   0  0  0  0  0  0  0  0  0  0  0  0
    2.9647   -2.0537   -1.7997 N   0  0  0  0  0  0  0  0  0  0  0  0
    1.9943    2.3353   -3.7088 C   0  0  0  0  0  0  0  0  0  0  0  0
    0.6663    0.6253   -1.2826 O   0  0  0  0  0  0  0  0  0  0  0  0
    1.8418   -1.3692   -1.4259 N   0  0  0  0  0  0  0  0  0  0  0  0
    0.8162   -2.1847   -0.7968 C   0  0  0  0  0  0  0  0  0  0  0  0
  1  2  2  0  0  0  0 
  2  3  1  0  0  0  0 
  2  4  1  0  0  0  0 
  2  5  1  0  0  0  0 
  3  6  1  0  0  0  0 
  4  7  1  0  0  0  0 
  5  8  1  0  0  0  0 
  6  9  1  0  0  0  0 
  7 10  1  0  0  0  0 
  8 11  2  0  0  0  0 
  8 12  1  0  0  0  0 
  9 13  1  0  0  0  0 
 10 14  1  0  0  0  0 
 15 11  1  0  0  0  0 
 11 16  1  0  0  0  0 
 17 12  2  0  0  0  0 
 15 18  1  0  0  0  0 
 19 16  2  0  0  0  0 
 20 16  1  0  0  0  0 
 20 17  1  0  0  0  0 
 20 21  1  0  0  0  0 
M  END
> <Name>
Phosphorothioic acid, O-(1,6-dihydro-5-methoxy-1-methyl-6-oxo-4-pyridazinyl) O,O-dipropyl ester

> <Source>
Chemidplus3DMolFile

> <Tox>
4.112

> <CAS>
59631-26-4

$$$$

  CDK

 21 20  0  0  0  0  0  0  0  0999 V2000
    5.7711   -3.3215    0.0000 C   0  0  0  0  0  0  0  0  0  0  0  0
    5.7711   -1.9929    0.0000 N   0  0  0  0  0  0  0  0  0  0  0  0
    6.9336   -1.3286    0.0000 S   0  0  0  0  0  0  0  0  0  0  0  0
    4.6224   -1.3286    0.0000 C   0  0  0  0  0  0  0  0  0  0  0  0
    8.0823   -1.9929    0.0000 N   0  0  0  0  0  0  0  0  0  0  0  0
    4.6224   -0.0000    0.0000 O   0  0  0  0  0  0  0  0  0  0  0  0
    3.4599   -1.9929    0.0000 O   0  0  0  0  0  0  0  0  0  0  0  0
    9.2310   -1.3286    0.0000 C   0  0  0  0  0  0  0  0  0  0  0  0
    8.0823   -3.3215    0.0000 C   0  0  0  0  0  0  0  0  0  0  0  0
    2.3112   -1.3286    0.0000 N   0  0  0  0  0  0  0  0  0  0  0  0
    9.2310   -0.0000    0.0000 O   0  0  0  0  0  0  0  0  0  0  0  0
   10.3797   -1.9929    0.0000 O   0  0  0  0  0  0  0  0  0  0  0  0
    1.1487   -1.9929    0.0000 C   0  0  0  0  0  0  0  0  0  0  0  0
   11.5283   -1.3286    0.0000 N   0  0  0  0  0  0  0  0  0  0  0  0
    0.0000   -1.3286    0.0000 S   0  0  0  0  0  0  0  0  0  0  0  0
    1.1487   -3.3215    0.0000 C   0  0  0  0  0  0  0  0  0  0  0  0
   12.6909   -1.9929    0.0000 C   0  0  0  0  0  0  0  0  0  0  0  0
    0.0000   -0.0000    0.0000 C   0  0  0  0  0  0  0  0  0  0  0  0
   13.8395   -1.3286    0.0000 S   0  0  0  0  0  0  0  0  0  0  0  0
   12.6909   -3.3215    0.0000 C   0  0  0  0  0  0  0  0  0  0  0  0
   13.8395   -0.0000    0.0000 C   0  0  0  0  0  0  0  0  0  0  0  0
  1  2  1  0  0  0  0 
  2  3  1  0  0  0  0 
  2  4  1  0  0  0  0 
  3  5  1  0  0  0  0 
  4  6  2  0  0  0  0 
  4  7  1  0  0  0  0 
  5  8  1  0  0  0  0 
  5  9  1  0  0  0  0 
  7 10  1  0  0  0  0 
  8 11  2  0  0  0  0 
  8 12  1  0  0  0  0 
 10 13  2  0  0  0  0 
 12 14  1  0  0  0  0 
 13 15  1  0  0  0  0 
 13 16  1  0  0  0  0 
 14 17  2  0  0  0  0 
 15 18  1  0  0  0  0 
 17 19  1  0  0  0  0 
 17 20  1  0  0  0  0 
 19 21  1  0  0  0  0 
M  END
> <Name>
Ethanimidothioic acid, N,N'-(thiobis((methylimino)carbonyloxy))bis-, dimethyl ester

> <Source>
DSSTox2DMolFile

> <Tox>
3.730

> <CAS>
59669-26-0

$$$$

  CDK

 20 20  0  0  0  0  0  0  0  0999 V2000
    7.2420    1.9634   -4.7668 S   0  0  0  0  0  0  0  0  0  0  0  0
    5.2194    1.8859   -4.2008 P   0  0  0  0  0  0  0  0  0  0  0  0
    7.4087    3.4823   -5.7253 C   0  0  0  0  0  0  0  0  0  0  0  0
    4.9946    0.5947   -3.2542 O   0  0  0  0  0  0  0  0  0  0  0  0
    4.8476    3.1295   -3.2214 O   0  0  0  0  0  0  0  0  0  0  0  0
    4.3395    1.8591   -5.4242 O   0  0  0  0  0  0  0  0  0  0  0  0
    8.8350    3.6068   -6.2474 C   0  0  0  0  0  0  0  0  0  0  0  0
    7.0255    4.6790   -4.8631 C   0  0  0  0  0  0  0  0  0  0  0  0
    5.2036   -0.6909   -3.6809 C   0  0  0  0  0  0  0  0  0  0  0  0
    5.5664    3.3243   -2.0156 C   0  0  0  0  0  0  0  0  0  0  0  0
    4.5832   -1.3029   -4.6896 C   0  0  0  0  0  0  0  0  0  0  0  0
    6.2089   -1.4794   -2.9602 C   0  0  0  0  0  0  0  0  0  0  0  0
    5.0172    4.5433   -1.3057 C   0  0  0  0  0  0  0  0  0  0  0  0
    3.6133   -0.7159   -5.4732 O   0  0  0  0  0  0  0  0  0  0  0  0
    4.9264   -2.7109   -5.0289 C   0  0  0  0  0  0  0  0  0  0  0  0
    6.5438   -2.6990   -3.2136 N   0  0  0  0  0  0  0  0  0  0  0  0
    2.3262   -0.9299   -4.9259 C   0  0  0  0  0  0  0  0  0  0  0  0
    4.3412   -3.2596   -5.9634 O   0  0  0  0  0  0  0  0  0  0  0  0
    5.9046   -3.3192   -4.2509 N   0  0  0  0  0  0  0  0  0  0  0  0
    6.3241   -4.6904   -4.4885 C   0  0  0  0  0  0  0  0  0  0  0  0
  1  2  1  0  0  0  0 
  1  3  1  0  0  0  0 
  2  4  1  0  0  0  0 
  2  5  1  0  0  0  0 
  2  6  2  0  0  0  0 
  3  7  1  0  0  0  0 
  3  8  1  0  0  0  0 
  4  9  1  0  0  0  0 
  5 10  1  0  0  0  0 
  9 11  2  0  0  0  0 
  9 12  1  0  0  0  0 
 10 13  1  0  0  0  0 
 14 11  1  0  0  0  0 
 11 15  1  0  0  0  0 
 16 12  2  0  0  0  0 
 14 17  1  0  0  0  0 
 18 15  2  0  0  0  0 
 19 15  1  0  0  0  0 
 19 16  1  0  0  0  0 
 19 20  1  0  0  0  0 
M  END
> <Name>
Phosphorothioic acid, O-(1,6-dihydro-5-methoxy-1-methyl-6-oxo-4-pyridazinyl) O-ethyl S-(1-methylethyl) ester

> <Source>
Chemidplus3DMolFile

> <Tox>
3.809

> <CAS>
59693-39-9

$$$$

  CDK

  9  9  0  0  0  0  0  0  0  0999 V2000
    2.1169   -2.5180    0.0000 C   0  0  0  0  0  0  0  0  0  0  0  0
    1.3326   -1.4440    0.0000 C   0  0  0  0  0  0  0  0  0  0  0  0
    3.3826   -2.1169    0.0000 C   0  0  0  0  0  0  0  0  0  0  0  0
    1.6980   -3.7837    0.0000 Cl  0  0  0  0  0  0  0  0  0  0  0  0
    2.1169   -0.3699    0.0000 C   0  0  0  0  0  0  0  0  0  0  0  0
    0.0000   -1.4440    0.0000 Cl  0  0  0  0  0  0  0  0  0  0  0  0
    3.3826   -0.7844    0.0000 C   0  0  0  0  0  0  0  0  0  0  0  0
    4.4567   -2.8879    0.0000 Cl  0  0  0  0  0  0  0  0  0  0  0  0
    4.4567   -0.0000    0.0000 Cl  0  0  0  0  0  0  0  0  0  0  0  0
  1  2  1  0  0  0  0 
  1  3  1  0  0  0  0 
  1  4  1  0  0  0  0 
  2  5  1  0  0  0  0 
  2  6  1  0  0  0  0 
  7  3  1  0  0  0  0 
  3  8  1  0  0  0  0 
  5  7  1  0  0  0  0 
  7  9  1  0  0  0  0 
M  END
> <Name>
Cyclopentane, tetrachloro-

> <Source>
DSSTox2DMolFile

> <Tox>
2.353

> <CAS>
59808-78-5

$$$$

  CDK

 18 18  0  0  0  0  0  0  0  0999 V2000
    5.5597    0.8515    0.0000 C   0  0  0  0  0  0  0  0  0  0  0  0
    4.5580    0.8515    0.0000 C   0  0  0  0  0  0  0  0  0  0  0  0
    4.0571    0.0000    0.0000 C   0  0  0  0  0  0  0  0  0  0  0  0
    4.0571    1.7030    0.0000 O   0  0  0  0  0  0  0  0  0  0  0  0
    3.0553    1.7030    0.0000 C   0  0  0  0  0  0  0  0  0  0  0  0
    2.5545    0.8515    0.0000 O   0  0  0  0  0  0  0  0  0  0  0  0
    2.5545    2.6046    0.0000 C   0  0  0  0  0  0  0  0  0  0  0  0
    3.0553    3.4560    0.0000 C   0  0  0  0  0  0  0  0  0  0  0  0
    1.5527    2.6046    0.0000 C   0  0  0  0  0  0  0  0  0  0  0  0
    2.5545    4.3075    0.0000 O   0  0  0  0  0  0  0  0  0  0  0  0
    4.0571    3.4560    0.0000 O   0  0  0  0  0  0  0  0  0  0  0  0
    0.9517    3.4060    0.0000 S   0  0  0  0  0  0  0  0  0  0  0  0
    0.9517    1.8032    0.0000 S   0  0  0  0  0  0  0  0  0  0  0  0
    4.5580    4.3075    0.0000 C   0  0  0  0  0  0  0  0  0  0  0  0
    0.0000    3.1054    0.0000 C   0  0  0  0  0  0  0  0  0  0  0  0
    0.0000    2.1037    0.0000 C   0  0  0  0  0  0  0  0  0  0  0  0
    5.5597    4.3075    0.0000 C   0  0  0  0  0  0  0  0  0  0  0  0
    4.0571    5.2091    0.0000 C   0  0  0  0  0  0  0  0  0  0  0  0
  1  2  1  0  0  0  0 
  2  3  1  0  0  0  0 
  2  4  1  0  0  0  0 
  4  5  1  0  0  0  0 
  6  5  2  0  0  0  0 
  5  7  1  0  0  0  0 
  7  8  1  0  0  0  0 
  7  9  2  0  0  0  0 
 10  8  2  0  0  0  0 
  8 11  1  0  0  0  0 
 12  9  1  0  0  0  0 
  9 13  1  0  0  0  0 
 14 11  1  0  0  0  0 
 15 12  1  0  0  0  0 
 13 16  1  0  0  0  0 
 17 14  1  0  0  0  0 
 14 18  1  0  0  0  0 
 16 15  2  0  0  0  0 
M  END
> <Name>
Propanedioic acid, 1,3-dithiol-2-ylidene-, bis(1-methylethyl) ester

> <Source>
NIST2DMolFile

> <Tox>
2.145

> <CAS>
59937-28-9

$$$$

  CDK

 17 17  0  0  0  0  0  0  0  0999 V2000
    6.9671   -1.4328   -2.1452 S   0  0  0  0  0  0  0  0  0  0  0  0
    6.1628   -0.4591   -3.6288 P   0  0  0  0  0  0  0  0  0  0  0  0
    4.9946    0.5947   -3.2542 O   0  0  0  0  0  0  0  0  0  0  0  0
    5.4258   -1.3472   -4.7753 O   0  0  0  0  0  0  0  0  0  0  0  0
    7.1606    0.4629   -4.5243 O   0  0  0  0  0  0  0  0  0  0  0  0
    3.7667    0.2286   -2.7678 C   0  0  0  0  0  0  0  0  0  0  0  0
    6.1215   -2.4173   -5.3924 C   0  0  0  0  0  0  0  0  0  0  0  0
    7.7487    1.6205   -3.9552 C   0  0  0  0  0  0  0  0  0  0  0  0
    2.6781   -0.0458   -3.4867 C   0  0  0  0  0  0  0  0  0  0  0  0
    3.6278    0.1266   -1.3112 C   0  0  0  0  0  0  0  0  0  0  0  0
    2.6267   -0.0001   -4.8632 O   0  0  0  0  0  0  0  0  0  0  0  0
    1.4134   -0.4308   -2.8031 C   0  0  0  0  0  0  0  0  0  0  0  0
    2.5580   -0.2028   -0.6702 N   0  0  0  0  0  0  0  0  0  0  0  0
    2.2506    1.2884   -5.3105 C   0  0  0  0  0  0  0  0  0  0  0  0
    0.4179   -0.6792   -3.4845 O   0  0  0  0  0  0  0  0  0  0  0  0
    1.4464   -0.4847   -1.4145 N   0  0  0  0  0  0  0  0  0  0  0  0
    0.2734   -0.8497   -0.6376 C   0  0  0  0  0  0  0  0  0  0  0  0
  1  2  2  0  0  0  0 
  2  3  1  0  0  0  0 
  2  4  1  0  0  0  0 
  2  5  1  0  0  0  0 
  3  6  1  0  0  0  0 
  4  7  1  0  0  0  0 
  5  8  1  0  0  0  0 
  6  9  2  0  0  0  0 
  6 10  1  0  0  0  0 
 11  9  1  0  0  0  0 
  9 12  1  0  0  0  0 
 13 10  2  0  0  0  0 
 11 14  1  0  0  0  0 
 15 12  2  0  0  0  0 
 16 12  1  0  0  0  0 
 16 13  1  0  0  0  0 
 16 17  1  0  0  0  0 
M  END
> <Name>
Phosphorothioic acid, O-(1,6-dihydro-5-methoxy-1-methyl-6-oxo-4-pyridazinyl) O,O-dimethyl ester

> <Source>
Chemidplus3DMolFile

> <Tox>
5.050

> <CAS>
60244-55-5

$$$$

  CDK

 18 18  0  0  0  0  0  0  0  0999 V2000
    6.2004   -2.1611   -3.6824 S   0  0  0  0  0  0  0  0  0  0  0  0
    5.8770   -0.3252   -4.2494 P   0  0  0  0  0  0  0  0  0  0  0  0
    4.9946    0.5947   -3.2542 O   0  0  0  0  0  0  0  0  0  0  0  0
    5.0943   -0.1238   -5.6617 O   0  0  0  0  0  0  0  0  0  0  0  0
    7.1855    0.6165   -4.4666 O   0  0  0  0  0  0  0  0  0  0  0  0
    3.7667    0.2286   -2.7678 C   0  0  0  0  0  0  0  0  0  0  0  0
    5.5633   -0.7828   -6.8259 C   0  0  0  0  0  0  0  0  0  0  0  0
    7.9757    0.9919   -3.3510 C   0  0  0  0  0  0  0  0  0  0  0  0
    2.6781   -0.0458   -3.4867 C   0  0  0  0  0  0  0  0  0  0  0  0
    3.6278    0.1266   -1.3112 C   0  0  0  0  0  0  0  0  0  0  0  0
    4.6629   -0.4277   -7.9900 C   0  0  0  0  0  0  0  0  0  0  0  0
    2.6267   -0.0001   -4.8632 O   0  0  0  0  0  0  0  0  0  0  0  0
    1.4134   -0.4308   -2.8031 C   0  0  0  0  0  0  0  0  0  0  0  0
    2.5580   -0.2028   -0.6702 N   0  0  0  0  0  0  0  0  0  0  0  0
    2.2506    1.2884   -5.3105 C   0  0  0  0  0  0  0  0  0  0  0  0
    0.4179   -0.6792   -3.4845 O   0  0  0  0  0  0  0  0  0  0  0  0
    1.4464   -0.4847   -1.4145 N   0  0  0  0  0  0  0  0  0  0  0  0
    0.2734   -0.8497   -0.6376 C   0  0  0  0  0  0  0  0  0  0  0  0
  1  2  2  0  0  0  0 
  2  3  1  0  0  0  0 
  2  4  1  0  0  0  0 
  2  5  1  0  0  0  0 
  3  6  1  0  0  0  0 
  4  7  1  0  0  0  0 
  5  8  1  0  0  0  0 
  6  9  2  0  0  0  0 
  6 10  1  0  0  0  0 
  7 11  1  0  0  0  0 
 12  9  1  0  0  0  0 
  9 13  1  0  0  0  0 
 14 10  2  0  0  0  0 
 12 15  1  0  0  0  0 
 16 13  2  0  0  0  0 
 17 13  1  0  0  0  0 
 17 14  1  0  0  0  0 
 17 18  1  0  0  0  0 
M  END
> <Name>
Phosphorothioic acid, O-(1,6-dihydro-5-methoxy-1-methyl-6-oxo-4-pyridazinyl) O-ethyl O-methyl ester

> <Source>
Chemidplus3DMolFile

> <Tox>
4.806

> <CAS>
60244-56-6

$$$$

  CDK

 22 22  0  0  0  0  0  0  0  0999 V2000
    6.5597    1.4464   -0.7933 S   0  0  0  0  0  0  0  0  0  0  0  0
    5.9079    1.7594   -2.6026 P   0  0  0  0  0  0  0  0  0  0  0  0
    7.0309    1.9607   -3.7621 O   0  0  0  0  0  0  0  0  0  0  0  0
    4.9726    3.0721   -2.8255 O   0  0  0  0  0  0  0  0  0  0  0  0
    4.9946    0.5947   -3.2542 O   0  0  0  0  0  0  0  0  0  0  0  0
    7.8574    0.8720   -4.1382 C   0  0  0  0  0  0  0  0  0  0  0  0
    5.4233    4.3405   -2.3808 C   0  0  0  0  0  0  0  0  0  0  0  0
    3.8888    0.0632   -2.6434 C   0  0  0  0  0  0  0  0  0  0  0  0
    8.8263    1.3091   -5.2403 C   0  0  0  0  0  0  0  0  0  0  0  0
    6.7264    4.6842   -3.0861 C   0  0  0  0  0  0  0  0  0  0  0  0
    4.3433    5.3778   -2.6484 C   0  0  0  0  0  0  0  0  0  0  0  0
    2.7916    0.7242   -2.2743 C   0  0  0  0  0  0  0  0  0  0  0  0
    3.9067   -1.3766   -2.3637 C   0  0  0  0  0  0  0  0  0  0  0  0
    9.7399    2.4400   -4.7629 C   0  0  0  0  0  0  0  0  0  0  0  0
    9.6581    0.1217   -5.7202 C   0  0  0  0  0  0  0  0  0  0  0  0
    2.6033    2.0770   -2.4581 O   0  0  0  0  0  0  0  0  0  0  0  0
    1.6712   -0.0030   -1.6177 C   0  0  0  0  0  0  0  0  0  0  0  0
    2.9647   -2.0537   -1.7997 N   0  0  0  0  0  0  0  0  0  0  0  0
    1.9943    2.3352   -3.7088 C   0  0  0  0  0  0  0  0  0  0  0  0
    0.6663    0.6253   -1.2827 O   0  0  0  0  0  0  0  0  0  0  0  0
    1.8418   -1.3691   -1.4259 N   0  0  0  0  0  0  0  0  0  0  0  0
    0.8161   -2.1846   -0.7968 C   0  0  0  0  0  0  0  0  0  0  0  0
  1  2  2  0  0  0  0 
  2  3  1  0  0  0  0 
  2  4  1  0  0  0  0 
  2  5  1  0  0  0  0 
  3  6  1  0  0  0  0 
  4  7  1  0  0  0  0 
  5  8  1  0  0  0  0 
  9  6  1  0  0  0  0 
  7 10  1  0  0  0  0 
  7 11  1  0  0  0  0 
  8 12  2  0  0  0  0 
  8 13  1  0  0  0  0 
  9 14  1  0  0  0  0 
  9 15  1  0  0  0  0 
 16 12  1  0  0  0  0 
 12 17  1  0  0  0  0 
 18 13  2  0  0  0  0 
 16 19  1  0  0  0  0 
 20 17  2  0  0  0  0 
 21 17  1  0  0  0  0 
 21 18  1  0  0  0  0 
 21 22  1  0  0  0  0 
M  END
> <Name>
Phosphorothioic acid, O-(1,6-dihydro-5-methoxy-1-methyl-6-oxo-4-pyridazinyl) O-(1-methylethyl) O-(2-methylpropyl) ester

> <Source>
Chemidplus3DMolFile

> <Tox>
3.829

> <CAS>
60244-68-0

$$$$

  CDK

 23 23  0  0  0  0  0  0  0  0999 V2000
    6.5597    1.4464   -0.7933 S   0  0  0  0  0  0  0  0  0  0  0  0
    5.9079    1.7593   -2.6026 P   0  0  0  0  0  0  0  0  0  0  0  0
    4.9726    3.0721   -2.8254 O   0  0  0  0  0  0  0  0  0  0  0  0
    7.0309    1.9607   -3.7621 O   0  0  0  0  0  0  0  0  0  0  0  0
    4.9946    0.5947   -3.2542 O   0  0  0  0  0  0  0  0  0  0  0  0
    3.6797    3.1211   -2.2459 C   0  0  0  0  0  0  0  0  0  0  0  0
    8.0590    2.9211   -3.5872 C   0  0  0  0  0  0  0  0  0  0  0  0
    5.4693   -0.6465   -3.5900 C   0  0  0  0  0  0  0  0  0  0  0  0
    3.0012    4.4483   -2.5960 C   0  0  0  0  0  0  0  0  0  0  0  0
    8.4985    3.4683   -4.9480 C   0  0  0  0  0  0  0  0  0  0  0  0
    5.5016   -1.7229   -2.8042 C   0  0  0  0  0  0  0  0  0  0  0  0
    5.9967   -0.8157   -4.9482 C   0  0  0  0  0  0  0  0  0  0  0  0
    1.6458    4.5535   -1.9004 C   0  0  0  0  0  0  0  0  0  0  0  0
    2.8363    4.6079   -4.1089 C   0  0  0  0  0  0  0  0  0  0  0  0
    7.3400    4.1575   -5.6721 C   0  0  0  0  0  0  0  0  0  0  0  0
    9.6696    4.4340   -4.7809 C   0  0  0  0  0  0  0  0  0  0  0  0
    5.0499   -1.7457   -1.5024 O   0  0  0  0  0  0  0  0  0  0  0  0
    6.0522   -3.0050   -3.3220 C   0  0  0  0  0  0  0  0  0  0  0  0
    6.4827   -1.9020   -5.4456 N   0  0  0  0  0  0  0  0  0  0  0  0
    3.6755   -1.4153   -1.4404 C   0  0  0  0  0  0  0  0  0  0  0  0
    6.0749   -3.9880   -2.5804 O   0  0  0  0  0  0  0  0  0  0  0  0
    6.5106   -3.0021   -4.6343 N   0  0  0  0  0  0  0  0  0  0  0  0
    7.0681   -4.1951   -5.2497 C   0  0  0  0  0  0  0  0  0  0  0  0
  1  2  2  0  0  0  0 
  2  3  1  0  0  0  0 
  2  4  1  0  0  0  0 
  2  5  1  0  0  0  0 
  3  6  1  0  0  0  0 
  4  7  1  0  0  0  0 
  5  8  1  0  0  0  0 
  9  6  1  0  0  0  0 
 10  7  1  0  0  0  0 
  8 11  2  0  0  0  0 
  8 12  1  0  0  0  0 
  9 13  1  0  0  0  0 
  9 14  1  0  0  0  0 
 10 15  1  0  0  0  0 
 10 16  1  0  0  0  0 
 17 11  1  0  0  0  0 
 11 18  1  0  0  0  0 
 19 12  2  0  0  0  0 
 17 20  1  0  0  0  0 
 21 18  2  0  0  0  0 
 22 18  1  0  0  0  0 
 22 19  1  0  0  0  0 
 22 23  1  0  0  0  0 
M  END
> <Name>
Phosphorothioic acid, O,O-bis(2-methylpropyl) O-(1,6-dihydro-5-methoxy-1-methyl-6-oxo-4-pyridazinyl) ester

> <Source>
Chemidplus3DMolFile

> <Tox>
3.431

> <CAS>
60244-70-4

$$$$

  CDK

 19 19  0  0  0  0  0  0  0  0999 V2000
    0.4506    2.4611    1.1939 P   0  0  0  0  0  0  0  0  0  0  0  0
   -0.3975    1.7860    2.4078 O   0  0  0  0  0  0  0  0  0  0  0  0
    1.4419    1.2451    0.7570 O   0  0  0  0  0  0  0  0  0  0  0  0
   -0.4420    2.8772    0.0513 O   0  0  0  0  0  0  0  0  0  0  0  0
    1.3872    3.6662    1.8667 N   0  0  0  0  0  0  0  0  0  0  0  0
   -1.2681    2.4728    3.1864 C   0  0  0  0  0  0  0  0  0  0  0  0
    0.9179    0.0746    0.1516 C   0  0  0  0  0  0  0  0  0  0  0  0
    2.1334    4.5196    0.9388 C   0  0  0  0  0  0  0  0  0  0  0  0
    2.2631    3.2890    2.9779 C   0  0  0  0  0  0  0  0  0  0  0  0
   -2.3577    3.1221    2.7761 C   0  0  0  0  0  0  0  0  0  0  0  0
   -0.9908    2.5110    4.6263 C   0  0  0  0  0  0  0  0  0  0  0  0
    2.0558   -0.8785   -0.1457 C   0  0  0  0  0  0  0  0  0  0  0  0
   -2.7696    3.1919    1.4628 O   0  0  0  0  0  0  0  0  0  0  0  0
   -3.2156    3.8324    3.7634 C   0  0  0  0  0  0  0  0  0  0  0  0
   -1.7004    3.1093    5.5220 N   0  0  0  0  0  0  0  0  0  0  0  0
   -3.6374    2.1192    1.1496 C   0  0  0  0  0  0  0  0  0  0  0  0
   -4.2173    4.4279    3.3648 O   0  0  0  0  0  0  0  0  0  0  0  0
   -2.8174    3.7712    5.0937 N   0  0  0  0  0  0  0  0  0  0  0  0
   -3.5760    4.4247    6.1474 C   0  0  0  0  0  0  0  0  0  0  0  0
  1  2  1  0  0  0  0 
  1  3  1  0  0  0  0 
  1  4  2  0  0  0  0 
  1  5  1  0  0  0  0 
  2  6  1  0  0  0  0 
  3  7  1  0  0  0  0 
  5  8  1  0  0  0  0 
  5  9  1  0  0  0  0 
  6 10  2  0  0  0  0 
  6 11  1  0  0  0  0 
  7 12  1  0  0  0  0 
 13 10  1  0  0  0  0 
 10 14  1  0  0  0  0 
 15 11  2  0  0  0  0 
 13 16  1  0  0  0  0 
 17 14  2  0  0  0  0 
 18 14  1  0  0  0  0 
 18 15  1  0  0  0  0 
 18 19  1  0  0  0  0 
M  END
> <Name>
Phosphoramidic acid, dimethyl-, 1,6-dihydro-5-methoxy-1-methyl-6-oxo-4- pyridazinyl ethyl ester

> <Source>
Chemidplus3DMolFile

> <Tox>
4.765

> <CAS>
60244-83-9

$$$$

  CDK

 16 17  0  0  0  0  0  0  0  0999 V2000
    6.2330    1.7229    0.0000 C   0  0  0  0  0  0  0  0  0  0  0  0
    5.7262    2.6351    0.0000 C   0  0  0  0  0  0  0  0  0  0  0  0
    5.7262    0.9121    0.0000 C   0  0  0  0  0  0  0  0  0  0  0  0
    4.7127    2.6351    0.0000 C   0  0  0  0  0  0  0  0  0  0  0  0
    4.7127    0.9121    0.0000 C   0  0  0  0  0  0  0  0  0  0  0  0
    4.1553    1.7229    0.0000 C   0  0  0  0  0  0  0  0  0  0  0  0
    4.2060    3.4965    0.0000 O   0  0  0  0  0  0  0  0  0  0  0  0
    3.1925    1.7229    0.0000 N   0  0  0  0  0  0  0  0  0  0  0  0
    3.1925    3.4965    0.0000 C   0  0  0  0  0  0  0  0  0  0  0  0
    2.6351    2.5337    0.0000 N   0  0  0  0  0  0  0  0  0  0  0  0
    2.6351    0.9628    0.0000 C   0  0  0  0  0  0  0  0  0  0  0  0
    1.6723    2.2297    0.0000 C   0  0  0  0  0  0  0  0  0  0  0  0
    1.6723    1.2669    0.0000 O   0  0  0  0  0  0  0  0  0  0  0  0
    2.9898    0.0000    0.0000 O   0  0  0  0  0  0  0  0  0  0  0  0
    0.8108    2.7871    0.0000 O   0  0  0  0  0  0  0  0  0  0  0  0
    0.0000    2.2297    0.0000 C   0  0  0  0  0  0  0  0  0  0  0  0
  2  1  2  0  0  0  0 
  1  3  1  0  0  0  0 
  4  2  1  0  0  0  0 
  3  5  2  0  0  0  0 
  6  4  2  0  0  0  0 
  4  7  1  0  0  0  0 
  5  6  1  0  0  0  0 
  6  8  1  0  0  0  0 
  7  9  1  0  0  0  0 
 10  8  1  0  0  0  0 
  8 11  1  0  0  0  0 
 12 10  2  0  0  0  0 
 11 13  1  0  0  0  0 
 11 14  2  0  0  0  0 
 13 12  1  0  0  0  0 
 12 15  1  0  0  0  0 
 15 16  1  0  0  0  0 
M  END
> <Name>
delta(sup 2)-1,3,4-Oxadiazolin-5-one, 2-methoxy-4-(o-methoxyphenyl)-

> <Source>
NIST2DMolFile

> <Tox>
3.104

> <CAS>
60589-06-2

$$$$

  CDK

 24 27  0  0  0  0  0  0  0  0999 V2000
    7.4855    3.5431    0.0000 C   0  0  0  0  0  0  0  0  0  0  0  0
    7.6851    4.5412    0.0000 N   0  0  0  0  0  0  0  0  0  0  0  0
    6.4874    3.4433    0.0000 N   0  0  0  0  0  0  0  0  0  0  0  0
    6.7868    5.0402    0.0000 C   0  0  0  0  0  0  0  0  0  0  0  0
    6.0882    4.3416    0.0000 C   0  0  0  0  0  0  0  0  0  0  0  0
    5.9884    2.5950    0.0000 C   0  0  0  0  0  0  0  0  0  0  0  0
    6.4874    1.6967    0.0000 C   0  0  0  0  0  0  0  0  0  0  0  0
    4.9903    2.5950    0.0000 C   0  0  0  0  0  0  0  0  0  0  0  0
    5.9884    0.8484    0.0000 C   0  0  0  0  0  0  0  0  0  0  0  0
    7.4855    1.6967    0.0000 C   0  0  0  0  0  0  0  0  0  0  0  0
    4.4913    1.6967    0.0000 C   0  0  0  0  0  0  0  0  0  0  0  0
    4.4913    3.4433    0.0000 C   0  0  0  0  0  0  0  0  0  0  0  0
    6.4874    0.0000    0.0000 C   0  0  0  0  0  0  0  0  0  0  0  0
    7.9845    0.8484    0.0000 C   0  0  0  0  0  0  0  0  0  0  0  0
    3.4932    1.6967    0.0000 C   0  0  0  0  0  0  0  0  0  0  0  0
    3.4932    3.4433    0.0000 C   0  0  0  0  0  0  0  0  0  0  0  0
    7.4855    0.0000    0.0000 C   0  0  0  0  0  0  0  0  0  0  0  0
    2.9942    2.5950    0.0000 C   0  0  0  0  0  0  0  0  0  0  0  0
    1.9961    2.5950    0.0000 C   0  0  0  0  0  0  0  0  0  0  0  0
    1.4971    1.6967    0.0000 C   0  0  0  0  0  0  0  0  0  0  0  0
    1.4971    3.4433    0.0000 C   0  0  0  0  0  0  0  0  0  0  0  0
    0.4990    1.6967    0.0000 C   0  0  0  0  0  0  0  0  0  0  0  0
    0.4990    3.4433    0.0000 C   0  0  0  0  0  0  0  0  0  0  0  0
    0.0000    2.5950    0.0000 C   0  0  0  0  0  0  0  0  0  0  0  0
  1  2  2  0  0  0  0 
  3  1  1  0  0  0  0 
  2  4  1  0  0  0  0 
  5  3  1  0  0  0  0 
  3  6  1  0  0  0  0 
  4  5  2  0  0  0  0 
  6  7  1  0  0  0  0 
  6  8  1  0  0  0  0 
  7  9  1  0  0  0  0 
 10  7  2  0  0  0  0 
 11  8  2  0  0  0  0 
  8 12  1  0  0  0  0 
  9 13  2  0  0  0  0 
 14 10  1  0  0  0  0 
 15 11  1  0  0  0  0 
 12 16  2  0  0  0  0 
 13 17  1  0  0  0  0 
 17 14  2  0  0  0  0 
 18 15  2  0  0  0  0 
 16 18  1  0  0  0  0 
 18 19  1  0  0  0  0 
 20 19  2  0  0  0  0 
 19 21  1  0  0  0  0 
 22 20  1  0  0  0  0 
 21 23  2  0  0  0  0 
 24 22  2  0  0  0  0 
 23 24  1  0  0  0  0 
M  END
> <Name>
1H-Imidazole, 1-((1,1'-biphenyl)-4-ylphenylmethyl)-, (+-)-

> <Source>
NIST2DMolFile

> <Tox>
2.327

> <CAS>
60628-96-8

$$$$

  CDK

 24 25  0  0  0  0  0  0  0  0999 V2000
    4.4447   -1.9729   -0.5183 O   0  0  0  0  0  0  0  0  0  0  0  0
    3.5141   -2.9525   -0.3190 C   0  0  0  0  0  0  0  0  0  0  0  0
    5.4980   -1.8804    0.4365 C   0  0  0  0  0  0  0  0  0  0  0  0
    2.1554   -2.6449   -0.1412 C   0  0  0  0  0  0  0  0  0  0  0  0
    3.9531   -4.2766   -0.2964 C   0  0  0  0  0  0  0  0  0  0  0  0
    5.9613   -0.4418    0.5217 C   0  0  0  0  0  0  0  0  0  0  0  0
    1.2289   -3.6952    0.0623 C   0  0  0  0  0  0  0  0  0  0  0  0
    1.6959   -1.3179   -0.1610 C   0  0  0  0  0  0  0  0  0  0  0  0
    3.0419   -5.3094   -0.0962 C   0  0  0  0  0  0  0  0  0  0  0  0
    1.6884   -5.0221    0.0821 C   0  0  0  0  0  0  0  0  0  0  0  0
   -0.1298   -3.3875    0.2401 C   0  0  0  0  0  0  0  0  0  0  0  0
    0.3424   -1.0306    0.0174 C   0  0  0  0  0  0  0  0  0  0  0  0
    0.7939   -6.1577    0.2880 C   0  0  0  0  0  0  0  0  0  0  0  0
   -0.5687   -2.0634    0.2176 C   0  0  0  0  0  0  0  0  0  0  0  0
    0.2503   -6.7250   -0.6773 O   0  0  0  0  0  0  0  0  0  0  0  0
    0.5197   -6.6616    1.7080 C   0  0  0  0  0  0  0  0  0  0  0  0
   -0.3931   -7.7435    1.6966 O   0  0  0  0  0  0  0  0  0  0  0  0
   -0.7130   -8.2772    2.9211 C   0  0  0  0  0  0  0  0  0  0  0  0
   -0.2736   -7.8907    3.9950 O   0  0  0  0  0  0  0  0  0  0  0  0
   -1.6903   -9.4175    2.7317 C   0  0  0  0  0  0  0  0  0  0  0  0
   -2.1709  -10.0184    4.0471 C   0  0  0  0  0  0  0  0  0  0  0  0
   -3.1834  -11.1120    3.8119 C   0  0  0  0  0  0  0  0  0  0  0  0
   -3.6300  -11.6676    4.9652 O   0  0  0  0  0  0  0  0  0  0  0  0
   -3.5509  -11.4767    2.7026 O   0  0  0  0  0  0  0  0  0  0  0  0
  1  2  1  0  0  0  0 
  1  3  1  0  0  0  0 
  4  2  1  0  0  0  0 
  2  5  2  0  0  0  0 
  3  6  1  0  0  0  0 
  7  4  1  0  0  0  0 
  4  8  2  0  0  0  0 
  9  5  1  0  0  0  0 
  7 10  1  0  0  0  0 
  7 11  2  0  0  0  0 
  8 12  1  0  0  0  0 
 10  9  2  0  0  0  0 
 10 13  1  0  0  0  0 
 11 14  1  0  0  0  0 
 14 12  2  0  0  0  0 
 15 13  2  0  0  0  0 
 13 16  1  0  0  0  0 
 17 16  1  0  0  0  0 
 17 18  1  0  0  0  0 
 19 18  2  0  0  0  0 
 20 18  1  0  0  0  0 
 20 21  1  0  0  0  0 
 21 22  1  0  0  0  0 
 23 22  1  0  0  0  0 
 24 22  2  0  0  0  0 
M  END
> <Name>
Succinic acid, (4-ethoxy-1-naphthylcarbonylmethyl) ester

> <Source>
Chemidplus3DMolFile

> <Tox>
1.975

> <CAS>
60634-59-5

$$$$

  CDK

  9  8  0  0  0  0  0  0  0  0999 V2000
    2.1545   -0.1103   -0.0772 C   0  0  0  0  0  0  0  0  0  0  0  0
    0.7440   -0.3617    0.3889 C   0  0  0  0  0  0  0  0  0  0  0  0
    2.5610    0.2148   -1.1786 O   0  0  0  0  0  0  0  0  0  0  0  0
    3.1098   -0.2902    0.8657 O   0  0  0  0  0  0  0  0  0  0  0  0
   -0.1893    0.7627   -0.0337 C   0  0  0  0  0  0  0  0  0  0  0  0
   -1.6416    0.4322    0.3363 C   0  0  0  0  0  0  0  0  0  0  0  0
   -2.1560   -0.6910   -0.5213 C   0  0  0  0  0  0  0  0  0  0  0  0
   -2.4788    1.6539    0.2047 N   0  0  0  0  0  0  0  0  0  0  0  0
   -2.7029   -1.7895   -0.0154 C   0  0  0  0  0  0  0  0  0  0  0  0
  1  2  1  0  0  0  0 
  1  3  2  0  0  0  0 
  1  4  1  0  0  0  0 
  2  5  1  0  0  0  0 
  5  6  1  0  0  0  0 
  6  7  1  0  0  0  0 
  6  8  1  0  0  0  0 
  7  9  2  0  0  0  0 
M  END
> <Name>
5-Hexenoic acid, 4-amino-

> <Source>
DougDB3DMolFile

> <Tox>
1.634

> <CAS>
60643-86-9

$$$$

  CDK

 22 24  0  0  0  0  0  0  0  0999 V2000
    3.0333    0.0000    0.0000 C   0  0  0  0  0  0  0  0  0  0  0  0
    3.8733    1.1200    0.0000 N   0  0  0  0  0  0  0  0  0  0  0  0
    5.2733    0.9800    0.0000 C   0  0  0  0  0  0  0  0  0  0  0  0
    3.3133    2.3800    0.0000 C   0  0  0  0  0  0  0  0  0  0  0  0
    1.9133    2.5200    0.0000 C   0  0  0  0  0  0  0  0  0  0  0  0
    1.3533    3.8267    0.0000 N   0  0  0  0  0  0  0  0  0  0  0  0
    0.0000    3.9667    0.0000 C   0  0  0  0  0  0  0  0  0  0  0  0
    2.1467    4.9467    0.0000 N   0  0  0  0  0  0  0  0  0  0  0  0
    1.7267    6.3000    0.0000 C   0  0  0  0  0  0  0  0  0  0  0  0
    3.5467    4.9467    0.0000 C   0  0  0  0  0  0  0  0  0  0  0  0
    2.8467    7.0933    0.0000 C   0  0  0  0  0  0  0  0  0  0  0  0
    4.4800    3.9200    0.0000 C   0  0  0  0  0  0  0  0  0  0  0  0
    4.0133    6.3000    0.0000 C   0  0  0  0  0  0  0  0  0  0  0  0
    2.8467    8.4933    0.0000 C   0  0  0  0  0  0  0  0  0  0  0  0
    5.8800    4.2000    0.0000 C   0  0  0  0  0  0  0  0  0  0  0  0
    5.3667    6.5800    0.0000 C   0  0  0  0  0  0  0  0  0  0  0  0
    1.6333    9.1933    0.0000 C   0  0  0  0  0  0  0  0  0  0  0  0
    4.0600    9.1933    0.0000 C   0  0  0  0  0  0  0  0  0  0  0  0
    6.3000    5.5533    0.0000 C   0  0  0  0  0  0  0  0  0  0  0  0
    1.6333   10.5933    0.0000 C   0  0  0  0  0  0  0  0  0  0  0  0
    4.0600   10.5933    0.0000 C   0  0  0  0  0  0  0  0  0  0  0  0
    2.8467   11.2467    0.0000 C   0  0  0  0  0  0  0  0  0  0  0  0
  1  2  1  0  0  0  0 
  2  3  1  0  0  0  0 
  2  4  1  0  0  0  0 
  4  5  1  0  0  0  0 
  5  6  1  0  0  0  0 
  6  7  1  0  0  0  0 
  6  8  1  0  0  0  0 
  8  9  1  0  0  0  0 
  8 10  1  0  0  0  0 
  9 11  2  0  0  0  0 
 12 10  1  0  0  0  0 
 13 10  2  0  0  0  0 
 11 14  1  0  0  0  0 
 11 13  1  0  0  0  0 
 15 12  2  0  0  0  0 
 13 16  1  0  0  0  0 
 14 17  2  0  0  0  0 
 14 18  1  0  0  0  0 
 19 15  1  0  0  0  0 
 16 19  2  0  0  0  0 
 17 20  1  0  0  0  0 
 21 18  2  0  0  0  0 
 20 22  2  0  0  0  0 
 22 21  1  0  0  0  0 
M  END
> <Name>
1,2-Ethanediamine, N,N,N'-trimethyl-N'-(3-phenyl-1H-indol-1-yl)-

> <Source>
IndexNet2DMolFile

> <Tox>
2.403

> <CAS>
60662-16-0

$$$$

  CDK

 19 20  0  0  0  0  0  0  0  0999 V2000
    1.8063    2.5590    0.0000 C   0  0  0  0  0  0  0  0  0  0  0  0
    0.8530    2.2579    0.0000 C   0  0  0  0  0  0  0  0  0  0  0  0
    2.4084    1.7562    0.0000 N   0  0  0  0  0  0  0  0  0  0  0  0
    0.8530    1.2544    0.0000 C   0  0  0  0  0  0  0  0  0  0  0  0
    0.0502    2.8600    0.0000 C   0  0  0  0  0  0  0  0  0  0  0  0
    1.8063    0.9533    0.0000 C   0  0  0  0  0  0  0  0  0  0  0  0
    3.4120    1.7562    0.0000 C   0  0  0  0  0  0  0  0  0  0  0  0
    0.0502    0.6523    0.0000 Cl  0  0  0  0  0  0  0  0  0  0  0  0
    0.0000    3.8134    0.0000 Cl  0  0  0  0  0  0  0  0  0  0  0  0
    2.1074    0.0000    0.0000 O   0  0  0  0  0  0  0  0  0  0  0  0
    3.9137    0.9032    0.0000 C   0  0  0  0  0  0  0  0  0  0  0  0
    3.9137    2.6593    0.0000 C   0  0  0  0  0  0  0  0  0  0  0  0
    4.9172    0.9032    0.0000 C   0  0  0  0  0  0  0  0  0  0  0  0
    4.9172    2.6593    0.0000 C   0  0  0  0  0  0  0  0  0  0  0  0
    5.4190    1.7562    0.0000 C   0  0  0  0  0  0  0  0  0  0  0  0
    5.4190    3.5123    0.0000 C   0  0  0  0  0  0  0  0  0  0  0  0
    6.4225    3.5123    0.0000 F   0  0  0  0  0  0  0  0  0  0  0  0
    4.9172    4.3653    0.0000 F   0  0  0  0  0  0  0  0  0  0  0  0
    5.9207    4.3653    0.0000 F   0  0  0  0  0  0  0  0  0  0  0  0
  2  1  1  0  0  0  0 
  1  3  1  0  0  0  0 
  4  2  1  0  0  0  0 
  2  5  1  0  0  0  0 
  3  6  1  0  0  0  0 
  3  7  1  0  0  0  0 
  6  4  1  0  0  0  0 
  4  8  1  0  0  0  0 
  5  9  1  0  0  0  0 
  6 10  2  0  0  0  0 
 11  7  2  0  0  0  0 
  7 12  1  0  0  0  0 
 13 11  1  0  0  0  0 
 12 14  2  0  0  0  0 
 15 13  2  0  0  0  0 
 14 15  1  0  0  0  0 
 14 16  1  0  0  0  0 
 16 17  1  0  0  0  0 
 16 18  1  0  0  0  0 
 16 19  1  0  0  0  0 
M  END
> <Name>
2-Pyrrolidinone, 3-chloro-4-(chloromethyl)-1-(3-(trifluoromethyl)phenyl)-

> <Source>
NIST2DMolFile

> <Tox>
1.932

> <CAS>
61213-25-0

$$$$

  CDK

  9  8  0  0  0  0  0  0  0  0999 V2000
   -2.1029   -0.8073    1.6166 O   0  0  0  0  0  0  0  0  0  0  0  0
   -1.2473   -1.6166    0.7939 C   0  0  0  0  0  0  0  0  0  0  0  0
   -1.5669   -0.5585    2.9093 C   0  0  0  0  0  0  0  0  0  0  0  0
   -1.8614   -1.9491   -0.5169 N   0  0  0  0  0  0  0  0  0  0  0  0
    0.1005   -0.9047    0.6099 C   0  0  0  0  0  0  0  0  0  0  0  0
   -2.0102   -0.9066   -1.3110 N   0  0  0  0  0  0  0  0  0  0  0  0
   -3.1043   -2.7083   -0.3052 C   0  0  0  0  0  0  0  0  0  0  0  0
   -1.8130   -1.2137   -2.4927 O   0  0  0  0  0  0  0  0  0  0  0  0
   -3.3948   -3.6330   -1.4692 C   0  0  0  0  0  0  0  0  0  0  0  0
  1  2  1  0  0  0  0 
  1  3  1  0  0  0  0 
  4  2  1  0  0  0  0 
  2  5  1  0  0  0  0 
  4  6  1  0  0  0  0 
  4  7  1  0  0  0  0 
  8  6  2  0  0  0  0 
  7  9  1  0  0  0  0 
M  END
> <Name>
Ethanamine, N-ethyl-1-methoxy-N-nitroso-

> <Source>
Chemidplus3DMolFile

> <Tox>
2.121

> <CAS>
61738-03-2

$$$$

  CDK

 11 10  0  0  0  0  0  0  0  0999 V2000
    3.6992    0.7610    0.7819 C   0  0  0  0  0  0  0  0  0  0  0  0
    2.5215    0.8007   -0.1651 C   0  0  0  0  0  0  0  0  0  0  0  0
    1.2017    0.8496    0.5915 C   0  0  0  0  0  0  0  0  0  0  0  0
   -0.0325    0.5247   -0.2894 C   0  0  0  0  0  0  0  0  0  0  0  0
    0.0939   -0.9290   -0.7972 C   0  0  0  0  0  0  0  0  0  0  0  0
   -0.1394    1.4343   -1.4715 N   0  0  0  0  0  0  0  0  0  0  0  0
   -1.2971    0.6947    0.5823 C   0  0  0  0  0  0  0  0  0  0  0  0
    0.0820   -1.9374    0.3430 C   0  0  0  0  0  0  0  0  0  0  0  0
   -2.6083    0.5435   -0.1736 C   0  0  0  0  0  0  0  0  0  0  0  0
    0.2137   -3.3543   -0.1610 C   0  0  0  0  0  0  0  0  0  0  0  0
   -3.7899    0.6238    0.7679 C   0  0  0  0  0  0  0  0  0  0  0  0
  1  2  1  0  0  0  0 
  2  3  1  0  0  0  0 
  3  4  1  0  0  0  0 
  4  5  1  0  0  0  0 
  4  6  1  0  0  0  0 
  4  7  1  0  0  0  0 
  5  8  1  0  0  0  0 
  7  9  1  0  0  0  0 
  8 10  1  0  0  0  0 
  9 11  1  0  0  0  0 
M  END
> <Name>
4-Heptanamine, 4-propyl-

> <Source>
DougDB3DMolFile

> <Tox>
3.066

> <CAS>
61822-36-4

$$$$

  CDK

 17 17  0  0  0  0  0  0  0  0999 V2000
    0.0508   -1.7203    2.2734 S   0  0  0  0  0  0  0  0  0  0  0  0
    1.4929   -2.0057    3.0672 N   0  0  0  0  0  0  0  0  0  0  0  0
   -0.6764   -3.2604    2.0931 N   0  0  0  0  0  0  0  0  0  0  0  0
    1.4447   -2.2997    4.5107 C   0  0  0  0  0  0  0  0  0  0  0  0
    2.4753   -2.8904    2.4160 C   0  0  0  0  0  0  0  0  0  0  0  0
   -0.3456   -3.9871    0.8761 C   0  0  0  0  0  0  0  0  0  0  0  0
   -1.5386   -3.7895    3.0598 C   0  0  0  0  0  0  0  0  0  0  0  0
    2.8345   -2.2202    5.1343 C   0  0  0  0  0  0  0  0  0  0  0  0
    3.8371   -2.7941    3.0963 C   0  0  0  0  0  0  0  0  0  0  0  0
   -1.7234   -2.9486    4.1304 O   0  0  0  0  0  0  0  0  0  0  0  0
   -2.0785   -4.8916    2.9636 O   0  0  0  0  0  0  0  0  0  0  0  0
    3.7261   -3.1200    4.4799 O   0  0  0  0  0  0  0  0  0  0  0  0
   -2.5949   -3.5527    5.0448 N   0  0  0  0  0  0  0  0  0  0  0  0
   -2.7923   -2.7854    6.0700 C   0  0  0  0  0  0  0  0  0  0  0  0
   -2.0054   -1.2136    6.1795 S   0  0  0  0  0  0  0  0  0  0  0  0
   -3.6773   -3.1308    7.2411 C   0  0  0  0  0  0  0  0  0  0  0  0
   -1.0373   -1.3895    7.6936 C   0  0  0  0  0  0  0  0  0  0  0  0
  1  2  1  0  0  0  0 
  1  3  1  0  0  0  0 
  2  4  1  0  0  0  0 
  2  5  1  0  0  0  0 
  3  6  1  0  0  0  0 
  3  7  1  0  0  0  0 
  4  8  1  0  0  0  0 
  5  9  1  0  0  0  0 
 10  7  1  0  0  0  0 
 11  7  2  0  0  0  0 
 12  8  1  0  0  0  0 
 12  9  1  0  0  0  0 
 10 13  1  0  0  0  0 
 13 14  2  0  0  0  0 
 15 14  1  0  0  0  0 
 14 16  1  0  0  0  0 
 15 17  1  0  0  0  0 
M  END
> <Name>
Ethanimidothioic acid, N-(((methyl(4-morpholinylthio)amino)carbonyl)oxy)-, methyl ester

> <Source>
Chemidplus3DMolFile

> <Tox>
3.425

> <CAS>
62382-21-2

$$$$

  CDK

 23 24  0  0  0  0  0  0  0  0999 V2000
    9.6622    9.7872    0.0000 N   0  0  0  0  0  0  0  0  0  0  0  0
    8.4544   10.4952    0.0000 C   0  0  0  0  0  0  0  0  0  0  0  0
    8.4544   11.8695    0.0000 O   0  0  0  0  0  0  0  0  0  0  0  0
    7.2467    9.7872    0.0000 C   0  0  0  0  0  0  0  0  0  0  0  0
    7.2467    8.4128    0.0000 C   0  0  0  0  0  0  0  0  0  0  0  0
    6.0389    7.7048    0.0000 C   0  0  0  0  0  0  0  0  0  0  0  0
    6.0389    6.2888    0.0000 N   0  0  0  0  0  0  0  0  0  0  0  0
    4.8311    5.5808    0.0000 C   0  0  0  0  0  0  0  0  0  0  0  0
    4.8311    4.2064    0.0000 C   0  0  0  0  0  0  0  0  0  0  0  0
    3.6233    6.2888    0.0000 C   0  0  0  0  0  0  0  0  0  0  0  0
    6.0389    3.4984    0.0000 C   0  0  0  0  0  0  0  0  0  0  0  0
    3.6233    3.4984    0.0000 C   0  0  0  0  0  0  0  0  0  0  0  0
    2.4156    5.5808    0.0000 C   0  0  0  0  0  0  0  0  0  0  0  0
    3.6233    7.7048    0.0000 C   0  0  0  0  0  0  0  0  0  0  0  0
    6.0389    2.0824    0.0000 C   0  0  0  0  0  0  0  0  0  0  0  0
    3.6233    2.0824    0.0000 C   0  0  0  0  0  0  0  0  0  0  0  0
    1.2078    6.2888    0.0000 C   0  0  0  0  0  0  0  0  0  0  0  0
    2.4156    8.4128    0.0000 C   0  0  0  0  0  0  0  0  0  0  0  0
    4.8311    8.4128    0.0000 O   0  0  0  0  0  0  0  0  0  0  0  0
    4.8311    1.4160    0.0000 C   0  0  0  0  0  0  0  0  0  0  0  0
    0.0000    5.5808    0.0000 F   0  0  0  0  0  0  0  0  0  0  0  0
    1.2078    7.7048    0.0000 C   0  0  0  0  0  0  0  0  0  0  0  0
    4.8311    0.0000    0.0000 Cl  0  0  0  0  0  0  0  0  0  0  0  0
  1  2  1  0  0  0  0 
  2  3  2  0  0  0  0 
  2  4  1  0  0  0  0 
  4  5  1  0  0  0  0 
  5  6  1  0  0  0  0 
  6  7  1  0  0  0  0 
  7  8  2  0  0  0  0 
  8  9  1  0  0  0  0 
  8 10  1  0  0  0  0 
  9 11  2  0  0  0  0 
  9 12  1  0  0  0  0 
 10 13  2  0  0  0  0 
 10 14  1  0  0  0  0 
 11 15  1  0  0  0  0 
 16 12  2  0  0  0  0 
 13 17  1  0  0  0  0 
 18 14  2  0  0  0  0 
 14 19  1  0  0  0  0 
 15 20  2  0  0  0  0 
 20 16  1  0  0  0  0 
 17 21  1  0  0  0  0 
 17 22  2  0  0  0  0 
 22 18  1  0  0  0  0 
 20 23  1  0  0  0  0 
M  END
> <Name>
Butanamide, 4-(((4-chlorophenyl)(5-fluoro-2-hydroxyphenyl)methylene)amino)-

> <Source>
IndexNet2DMolFile

> <Tox>
2.394

> <CAS>
62666-20-0

$$$$

  CDK

 12 12  0  0  0  0  0  0  0  0999 V2000
    0.0000    0.0000    0.0000 C   0  0  0  0  0  0  0  0  0  0  0  0
   -0.3000    1.2800   -0.7000 N   0  0  0  0  0  0  0  0  0  0  0  0
   -0.9600    1.2400   -2.0000 C   0  0  0  0  0  0  0  0  0  0  0  0
    0.0200    2.3400   -0.2000 N   0  0  0  0  0  0  0  0  0  0  0  0
   -1.5000   -0.1000   -2.3000 C   0  0  0  0  0  0  0  0  0  0  0  0
   -0.1400    3.4200   -0.8600 O   0  0  0  0  0  0  0  0  0  0  0  0
   -2.9000   -0.3200   -2.4000 C   0  0  0  0  0  0  0  0  0  0  0  0
   -0.6200   -1.1800   -2.4800 C   0  0  0  0  0  0  0  0  0  0  0  0
   -3.3800   -1.6000   -2.6800 C   0  0  0  0  0  0  0  0  0  0  0  0
   -3.8600    0.8000   -2.2200 C   0  0  0  0  0  0  0  0  0  0  0  0
   -1.1200   -2.4600   -2.7600 C   0  0  0  0  0  0  0  0  0  0  0  0
   -2.5000   -2.6800   -2.8600 C   0  0  0  0  0  0  0  0  0  0  0  0
  1  2  1  0  0  0  0 
  2  3  1  0  0  0  0 
  2  4  1  0  0  0  0 
  3  5  1  0  0  0  0 
  4  6  2  0  0  0  0 
  5  7  2  0  0  0  0 
  5  8  1  0  0  0  0 
  7  9  1  0  0  0  0 
  7 10  1  0  0  0  0 
 11  8  2  0  0  0  0 
  9 12  2  0  0  0  0 
 12 11  1  0  0  0  0 
M  END
> <Name>
Benzylamine, N,o-dimethyl-N-nitroso-

> <Source>
NIH3DMolFile

> <Tox>
3.261

> <CAS>
62783-48-6

$$$$

  CDK

 12 12  0  0  0  0  0  0  0  0999 V2000
    1.2127    2.0988    0.0000 C   0  0  0  0  0  0  0  0  0  0  0  0
    1.2127    0.6996    0.0000 C   0  0  0  0  0  0  0  0  0  0  0  0
    2.4253    2.7984    0.0000 C   0  0  0  0  0  0  0  0  0  0  0  0
    0.0000    2.7984    0.0000 C   0  0  0  0  0  0  0  0  0  0  0  0
    2.4253    0.0000    0.0000 C   0  0  0  0  0  0  0  0  0  0  0  0
    3.6380    2.0988    0.0000 C   0  0  0  0  0  0  0  0  0  0  0  0
    3.6380    0.6996    0.0000 C   0  0  0  0  0  0  0  0  0  0  0  0
    4.8506    2.7984    0.0000 C   0  0  0  0  0  0  0  0  0  0  0  0
    6.0633    2.0988    0.0000 N   0  0  0  0  0  0  0  0  0  0  0  0
    7.2760    2.7984    0.0000 C   0  0  0  0  0  0  0  0  0  0  0  0
    6.0633    0.6996    0.0000 N   0  0  0  0  0  0  0  0  0  0  0  0
    4.8506    0.0000    0.0000 O   0  0  0  0  0  0  0  0  0  0  0  0
  1  2  2  0  0  0  0 
  1  3  1  0  0  0  0 
  1  4  1  0  0  0  0 
  2  5  1  0  0  0  0 
  6  3  2  0  0  0  0 
  5  7  2  0  0  0  0 
  7  6  1  0  0  0  0 
  6  8  1  0  0  0  0 
  8  9  1  0  0  0  0 
  9 10  1  0  0  0  0 
  9 11  1  0  0  0  0 
 11 12  2  0  0  0  0 
M  END
> <Name>
N-Nitroso-N-(3-methylbenzyl)methylamine

> <Source>
IndexNet2DMolFile

> <Tox>
2.437

> <CAS>
62783-49-7

$$$$

  CDK

 12 12  0  0  0  0  0  0  0  0999 V2000
    1.2127    2.0988    0.0000 C   0  0  0  0  0  0  0  0  0  0  0  0
    1.2127    0.6996    0.0000 C   0  0  0  0  0  0  0  0  0  0  0  0
    2.4253    2.7984    0.0000 C   0  0  0  0  0  0  0  0  0  0  0  0
    2.4253    0.0000    0.0000 C   0  0  0  0  0  0  0  0  0  0  0  0
    0.0000    0.0000    0.0000 C   0  0  0  0  0  0  0  0  0  0  0  0
    3.6380    2.0988    0.0000 C   0  0  0  0  0  0  0  0  0  0  0  0
    3.6380    0.6996    0.0000 C   0  0  0  0  0  0  0  0  0  0  0  0
    4.8506    2.7984    0.0000 C   0  0  0  0  0  0  0  0  0  0  0  0
    6.0633    2.0988    0.0000 N   0  0  0  0  0  0  0  0  0  0  0  0
    7.2760    2.7984    0.0000 C   0  0  0  0  0  0  0  0  0  0  0  0
    6.0633    0.6996    0.0000 N   0  0  0  0  0  0  0  0  0  0  0  0
    4.8506    0.0000    0.0000 O   0  0  0  0  0  0  0  0  0  0  0  0
  1  2  2  0  0  0  0 
  1  3  1  0  0  0  0 
  2  4  1  0  0  0  0 
  2  5  1  0  0  0  0 
  6  3  2  0  0  0  0 
  4  7  2  0  0  0  0 
  7  6  1  0  0  0  0 
  6  8  1  0  0  0  0 
  8  9  1  0  0  0  0 
  9 10  1  0  0  0  0 
  9 11  1  0  0  0  0 
 11 12  2  0  0  0  0 
M  END
> <Name>
N-Nitroso-N-(4-methylbenzyl)methylamine

> <Source>
IndexNet2DMolFile

> <Tox>
2.613

> <CAS>
62783-50-0

$$$$

  CDK

 16 17  0  0  0  0  0  0  0  0999 V2000
    4.8506    5.5969    0.0000 C   0  0  0  0  0  0  0  0  0  0  0  0
    6.0633    6.2965    0.0000 C   0  0  0  0  0  0  0  0  0  0  0  0
    4.8506    4.1977    0.0000 C   0  0  0  0  0  0  0  0  0  0  0  0
    7.2760    5.5969    0.0000 C   0  0  0  0  0  0  0  0  0  0  0  0
    6.0633    3.4981    0.0000 N   0  0  0  0  0  0  0  0  0  0  0  0
    3.6380    3.4981    0.0000 C   0  0  0  0  0  0  0  0  0  0  0  0
    7.2760    4.1977    0.0000 N   0  0  0  0  0  0  0  0  0  0  0  0
    8.4886    6.2965    0.0000 O   0  0  0  0  0  0  0  0  0  0  0  0
    2.4253    4.1977    0.0000 C   0  0  0  0  0  0  0  0  0  0  0  0
    3.6380    2.0988    0.0000 C   0  0  0  0  0  0  0  0  0  0  0  0
    1.2127    3.4981    0.0000 C   0  0  0  0  0  0  0  0  0  0  0  0
    2.4253    1.3992    0.0000 C   0  0  0  0  0  0  0  0  0  0  0  0
    1.2127    2.0988    0.0000 C   0  0  0  0  0  0  0  0  0  0  0  0
    0.0000    4.1977    0.0000 Cl  0  0  0  0  0  0  0  0  0  0  0  0
    2.4253    0.0000    0.0000 Cl  0  0  0  0  0  0  0  0  0  0  0  0
    0.0000    1.3992    0.0000 C   0  0  0  0  0  0  0  0  0  0  0  0
  1  2  2  0  0  0  0 
  1  3  1  0  0  0  0 
  2  4  1  0  0  0  0 
  3  5  2  0  0  0  0 
  3  6  1  0  0  0  0 
  7  4  1  0  0  0  0 
  4  8  2  0  0  0  0 
  5  7  1  0  0  0  0 
  6  9  2  0  0  0  0 
  6 10  1  0  0  0  0 
  9 11  1  0  0  0  0 
 12 10  2  0  0  0  0 
 11 13  2  0  0  0  0 
 11 14  1  0  0  0  0 
 13 12  1  0  0  0  0 
 12 15  1  0  0  0  0 
 13 16  1  0  0  0  0 
M  END
> <Name>
3(2H)-Pyridazinone, 6-(3,5-dichloro-4-methylphenyl)-

> <Source>
IndexNet2DMolFile

> <Tox>
1.328

> <CAS>
62865-36-5

$$$$

  CDK

 28 29  0  0  0  0  0  0  0  0999 V2000
    2.6400   -4.6143    0.0000 C   0  0  0  0  0  0  0  0  0  0  0  0
    1.9856   -5.7763    0.0000 C   0  0  0  0  0  0  0  0  0  0  0  0
    1.9856   -3.4635    0.0000 C   0  0  0  0  0  0  0  0  0  0  0  0
    3.9712   -4.6143    0.0000 C   0  0  0  0  0  0  0  0  0  0  0  0
    0.6543   -5.7763    0.0000 C   0  0  0  0  0  0  0  0  0  0  0  0
    2.6400   -6.9270    0.0000 F   0  0  0  0  0  0  0  0  0  0  0  0
    0.6543   -3.4635    0.0000 C   0  0  0  0  0  0  0  0  0  0  0  0
    2.6400   -2.3128    0.0000 Cl  0  0  0  0  0  0  0  0  0  0  0  0
    4.6481   -3.4635    0.0000 N   0  0  0  0  0  0  0  0  0  0  0  0
    0.0000   -4.6143    0.0000 C   0  0  0  0  0  0  0  0  0  0  0  0
    5.9568   -3.4635    0.0000 C   0  0  0  0  0  0  0  0  0  0  0  0
    3.7230   -2.5723    0.0000 C   0  0  0  0  0  0  0  0  0  0  0  0
    6.6337   -2.3128    0.0000 C   0  0  0  0  0  0  0  0  0  0  0  0
    6.6337   -4.6143    0.0000 C   0  0  0  0  0  0  0  0  0  0  0  0
    3.7230   -1.2523    0.0000 C   0  0  0  0  0  0  0  0  0  0  0  0
    7.9650   -2.3128    0.0000 C   0  0  0  0  0  0  0  0  0  0  0  0
    5.9568   -1.1620    0.0000 N   0  0  0  0  0  0  0  0  0  0  0  0
    7.9650   -4.6143    0.0000 C   0  0  0  0  0  0  0  0  0  0  0  0
    5.9568   -5.7763    0.0000 N   0  0  0  0  0  0  0  0  0  0  0  0
    8.6419   -3.4635    0.0000 C   0  0  0  0  0  0  0  0  0  0  0  0
    6.6337   -0.0000    0.0000 O   0  0  0  0  0  0  0  0  0  0  0  0
    4.6481   -0.6882    0.0000 O   0  0  0  0  0  0  0  0  0  0  0  0
    4.6481   -5.7763    0.0000 O   0  0  0  0  0  0  0  0  0  0  0  0
    6.6337   -6.9270    0.0000 O   0  0  0  0  0  0  0  0  0  0  0  0
    9.9506   -3.4635    0.0000 C   0  0  0  0  0  0  0  0  0  0  0  0
   11.2818   -3.4635    0.0000 F   0  0  0  0  0  0  0  0  0  0  0  0
    9.9506   -2.1323    0.0000 F   0  0  0  0  0  0  0  0  0  0  0  0
    9.9506   -4.7948    0.0000 F   0  0  0  0  0  0  0  0  0  0  0  0
  1  2  1  0  0  0  0 
  1  3  2  0  0  0  0 
  1  4  1  0  0  0  0 
  2  5  2  0  0  0  0 
  2  6  1  0  0  0  0 
  7  3  1  0  0  0  0 
  3  8  1  0  0  0  0 
  4  9  1  0  0  0  0 
  5 10  1  0  0  0  0 
 10  7  2  0  0  0  0 
  9 11  1  0  0  0  0 
  9 12  1  0  0  0  0 
 11 13  2  0  0  0  0 
 11 14  1  0  0  0  0 
 12 15  1  0  0  0  0 
 13 16  1  0  0  0  0 
 13 17  1  0  0  0  0 
 14 18  2  0  0  0  0 
 14 19  1  0  0  0  0 
 16 20  2  0  0  0  0 
 17 21  1  0  0  0  0 
 17 22  2  0  0  0  0 
 18 20  1  0  0  0  0 
 19 23  1  0  0  0  0 
 19 24  2  0  0  0  0 
 20 25  1  0  0  0  0 
 25 26  1  0  0  0  0 
 25 27  1  0  0  0  0 
 25 28  1  0  0  0  0 
M  CHG  1  17   1
M  CHG  1  19   1
M  CHG  1  21  -1
M  CHG  1  23  -1
M  END
> <Name>
Benzenemethanamine, 2-chloro-N-(2,6-dinitro-4-(trifluoromethyl)phenyl)-N-ethyl-6-fluoro-

> <Source>
DSSTox2DMolFile

> <Tox>
2.134

> <CAS>
62924-70-3

$$$$

  CDK

 18 19  0  0  0  0  0  0  0  0999 V2000
    8.7876    0.8329    0.0000 C   0  0  0  0  0  0  0  0  0  0  0  0
    8.4961    2.2490    0.0000 N   0  0  0  0  0  0  0  0  0  0  0  0
    7.2050    2.7904    0.0000 C   0  0  0  0  0  0  0  0  0  0  0  0
    9.4540    3.2485    0.0000 C   0  0  0  0  0  0  0  0  0  0  0  0
    5.9972    2.0824    0.0000 C   0  0  0  0  0  0  0  0  0  0  0  0
    7.4133    4.2064    0.0000 N   0  0  0  0  0  0  0  0  0  0  0  0
    8.7460    4.4563    0.0000 C   0  0  0  0  0  0  0  0  0  0  0  0
   10.8283    3.1236    0.0000 N   0  0  0  0  0  0  0  0  0  0  0  0
    4.8311    2.7904    0.0000 C   0  0  0  0  0  0  0  0  0  0  0  0
   11.6613    4.2480    0.0000 O   0  0  0  0  0  0  0  0  0  0  0  0
   11.4114    1.8325    0.0000 O   0  0  0  0  0  0  0  0  0  0  0  0
    3.6233    2.0824    0.0000 C   0  0  0  0  0  0  0  0  0  0  0  0
    3.6233    0.7080    0.0000 C   0  0  0  0  0  0  0  0  0  0  0  0
    2.4156    2.7904    0.0000 N   0  0  0  0  0  0  0  0  0  0  0  0
    2.4156    0.0000    0.0000 C   0  0  0  0  0  0  0  0  0  0  0  0
    1.2078    2.0824    0.0000 C   0  0  0  0  0  0  0  0  0  0  0  0
    1.2078    0.7080    0.0000 N   0  0  0  0  0  0  0  0  0  0  0  0
    0.0000    2.7904    0.0000 N   0  0  0  0  0  0  0  0  0  0  0  0
  1  2  1  0  0  0  0 
  2  3  1  0  0  0  0 
  2  4  1  0  0  0  0 
  3  5  1  0  0  0  0 
  3  6  2  0  0  0  0 
  7  4  2  0  0  0  0 
  4  8  1  0  0  0  0 
  5  9  2  0  0  0  0 
  6  7  1  0  0  0  0 
  8 10  2  0  0  0  0 
  8 11  1  0  0  0  0 
  9 12  1  0  0  0  0 
 12 13  1  0  0  0  0 
 12 14  2  0  0  0  0 
 13 15  2  0  0  0  0 
 16 14  1  0  0  0  0 
 15 17  1  0  0  0  0 
 17 16  2  0  0  0  0 
 16 18  1  0  0  0  0 
M  CHG  1   8   1
M  CHG  1  11  -1
M  END
> <Name>
2-Pyrimidinamine, 4-(2-(1-methyl-5-nitro-1H-imidazol-2-yl)ethenyl)-, (E)-

> <Source>
IndexNet2DMolFile

> <Tox>
1.511

> <CAS>
62973-76-6

$$$$

  CDK

 14 14  0  0  0  0  0  0  0  0999 V2000
   -1.8372   -1.1786    0.0000 N   0  0  0  0  0  0  0  0  0  0  0  0
   -1.1227   -0.7661    0.0000 C   0  0  0  0  0  0  0  0  0  0  0  0
   -0.4083   -0.3536    0.0000 C   0  0  0  0  0  0  0  0  0  0  0  0
    0.3062   -0.7661    0.0000 N   0  0  0  0  0  0  0  0  0  0  0  0
   -0.4083    0.4714    0.0000 C   0  0  0  0  0  0  0  0  0  0  0  0
    0.3062   -1.5911    0.0000 O   0  0  0  0  0  0  0  0  0  0  0  0
    0.3062    0.8839    0.0000 C   0  0  0  0  0  0  0  0  0  0  0  0
   -1.1227    0.8839    0.0000 C   0  0  0  0  0  0  0  0  0  0  0  0
    1.0207   -2.0036    0.0000 C   0  0  0  0  0  0  0  0  0  0  0  0
    0.3062    1.7089    0.0000 C   0  0  0  0  0  0  0  0  0  0  0  0
   -1.1227    1.7089    0.0000 C   0  0  0  0  0  0  0  0  0  0  0  0
    1.7351   -2.4161    0.0000 C   0  0  0  0  0  0  0  0  0  0  0  0
   -0.4083    2.1214    0.0000 C   0  0  0  0  0  0  0  0  0  0  0  0
    2.4496   -2.8286    0.0000 N   0  0  0  0  0  0  0  0  0  0  0  0
  1  2  3  0  0  0  0 
  2  3  1  0  0  0  0 
  3  4  2  0  0  0  0 
  3  5  1  0  0  0  0 
  4  6  1  0  0  0  0 
  5  7  1  0  0  0  0 
  5  8  2  0  0  0  0 
  6  9  1  0  0  0  0 
  7 10  2  0  0  0  0 
 11  8  1  0  0  0  0 
  9 12  1  0  0  0  0 
 10 13  1  0  0  0  0 
 13 11  2  0  0  0  0 
 12 14  3  0  0  0  0 
M  END
> <Name>
Benzeneacetonitrile, alpha-((cyanomethoxy)imino)-

> <Source>
Smiles

> <Tox>
1.910

> <CAS>
63278-33-1

$$$$

  CDK

 33 32  0  0  0  0  0  0  0  0999 V2000
    0.5487    0.3442    0.0000 Si  0  0  0  0  0  0  0  0  0  0  0  0
   -0.0584    0.9029    0.0000 O   0  0  0  0  0  0  0  0  0  0  0  0
    1.1074    0.9512    0.0000 O   0  0  0  0  0  0  0  0  0  0  0  0
   -0.0100   -0.2629    0.0000 O   0  0  0  0  0  0  0  0  0  0  0  0
   -0.2387    0.0978    0.0000 O   0  0  0  0  0  0  0  0  0  0  0  0
   -0.8457    0.6565    0.0000 C   0  0  0  0  0  0  0  0  0  0  0  0
    1.9124    0.7709    0.0000 C   0  0  0  0  0  0  0  0  0  0  0  0
    0.2363   -1.0502    0.0000 C   0  0  0  0  0  0  0  0  0  0  0  0
   -0.8457    0.6565    0.0000 C   0  0  0  0  0  0  0  0  0  0  0  0
   -0.5994   -0.1308    0.0000 C   0  0  0  0  0  0  0  0  0  0  0  0
   -1.0921    1.4439    0.0000 C   0  0  0  0  0  0  0  0  0  0  0  0
   -1.6331    0.4102    0.0000 C   0  0  0  0  0  0  0  0  0  0  0  0
    2.0927    1.5759    0.0000 C   0  0  0  0  0  0  0  0  0  0  0  0
    1.7321   -0.0342    0.0000 C   0  0  0  0  0  0  0  0  0  0  0  0
    2.7175    0.5905    0.0000 C   0  0  0  0  0  0  0  0  0  0  0  0
    1.0237   -0.8039    0.0000 C   0  0  0  0  0  0  0  0  0  0  0  0
   -0.5511   -1.2966    0.0000 C   0  0  0  0  0  0  0  0  0  0  0  0
    0.4826   -1.8376    0.0000 C   0  0  0  0  0  0  0  0  0  0  0  0
   -1.4044    0.0495    0.0000 C   0  0  0  0  0  0  0  0  0  0  0  0
   -0.2870    1.2636    0.0000 C   0  0  0  0  0  0  0  0  0  0  0  0
   -1.4528    1.2152    0.0000 C   0  0  0  0  0  0  0  0  0  0  0  0
   -2.4205    0.1638    0.0000 C   0  0  0  0  0  0  0  0  0  0  0  0
    3.5225    0.4102    0.0000 C   0  0  0  0  0  0  0  0  0  0  0  0
    0.7290   -2.6249    0.0000 C   0  0  0  0  0  0  0  0  0  0  0  0
   -2.0598    1.7739    0.0000 C   0  0  0  0  0  0  0  0  0  0  0  0
   -3.2078   -0.0825    0.0000 C   0  0  0  0  0  0  0  0  0  0  0  0
    4.3276    0.2298    0.0000 C   0  0  0  0  0  0  0  0  0  0  0  0
    0.9753   -3.4123    0.0000 C   0  0  0  0  0  0  0  0  0  0  0  0
   -2.6668    2.3326    0.0000 C   0  0  0  0  0  0  0  0  0  0  0  0
   -3.9952   -0.3289    0.0000 C   0  0  0  0  0  0  0  0  0  0  0  0
    5.1326    0.0495    0.0000 C   0  0  0  0  0  0  0  0  0  0  0  0
    1.2217   -4.1997    0.0000 C   0  0  0  0  0  0  0  0  0  0  0  0
   -3.2738    2.8913    0.0000 C   0  0  0  0  0  0  0  0  0  0  0  0
  1  2  1  0  0  0  0 
  1  3  1  0  0  0  0 
  1  4  1  0  0  0  0 
  1  5  1  0  0  0  0 
  2  6  1  0  0  0  0 
  3  7  1  0  0  0  0 
  4  8  1  0  0  0  0 
  5  9  1  0  0  0  0 
  6 10  1  0  0  0  0 
  6 11  1  0  0  0  0 
  6 12  1  0  0  0  0 
  7 13  1  0  0  0  0 
  7 14  1  0  0  0  0 
  7 15  1  0  0  0  0 
  8 16  1  0  0  0  0 
  8 17  1  0  0  0  0 
  8 18  1  0  0  0  0 
  9 19  1  0  0  0  0 
  9 20  1  0  0  0  0 
  9 21  1  0  0  0  0 
 12 22  1  0  0  0  0 
 15 23  1  0  0  0  0 
 18 24  1  0  0  0  0 
 21 25  1  0  0  0  0 
 22 26  1  0  0  0  0 
 23 27  1  0  0  0  0 
 24 28  1  0  0  0  0 
 25 29  1  0  0  0  0 
 26 30  1  0  0  0  0 
 27 31  1  0  0  0  0 
 28 32  1  0  0  0  0 
 29 33  1  0  0  0  0 
M  END
> <Name>
Silicic acid (H4SiO4), tetrakis(1,1-dimethylpentyl) ester

> <Source>
Smiles

> <Tox>
0.909

> <CAS>
63449-47-8

$$$$

  CDK

 21 20  0  0  0  0  0  0  0  0999 V2000
   -2.2965   -2.5544    6.0012 Cl  0  0  0  0  0  0  0  0  0  0  0  0
   -3.9181   -1.3767    6.0576 P   0  0  0  0  0  0  0  0  0  0  0  0
   -4.3425   -1.1497    4.5144 O   0  0  0  0  0  0  0  0  0  0  0  0
   -3.3408    0.0517    6.5540 O   0  0  0  0  0  0  0  0  0  0  0  0
   -4.9976   -1.9621    6.9216 O   0  0  0  0  0  0  0  0  0  0  0  0
   -3.4233   -0.6027    3.5789 C   0  0  0  0  0  0  0  0  0  0  0  0
   -4.2542    1.0063    7.0662 C   0  0  0  0  0  0  0  0  0  0  0  0
   -4.1742    0.1834    2.4917 C   0  0  0  0  0  0  0  0  0  0  0  0
   -3.5102    2.2867    7.4798 C   0  0  0  0  0  0  0  0  0  0  0  0
   -4.7395    1.4843    3.0998 C   0  0  0  0  0  0  0  0  0  0  0  0
   -3.3175    0.3983    1.2238 C   0  0  0  0  0  0  0  0  0  0  0  0
   -3.0306    3.0303    6.2154 C   0  0  0  0  0  0  0  0  0  0  0  0
   -4.3366    3.1593    8.4511 C   0  0  0  0  0  0  0  0  0  0  0  0
   -5.6335    2.2732    2.1375 C   0  0  0  0  0  0  0  0  0  0  0  0
   -2.0877    1.2753    1.4148 C   0  0  0  0  0  0  0  0  0  0  0  0
   -2.1480    4.2459    6.5165 C   0  0  0  0  0  0  0  0  0  0  0  0
   -5.6146    3.7454    7.8667 C   0  0  0  0  0  0  0  0  0  0  0  0
   -6.1752    3.5702    2.7447 C   0  0  0  0  0  0  0  0  0  0  0  0
   -1.6917    4.9862    5.2562 C   0  0  0  0  0  0  0  0  0  0  0  0
   -7.0425    4.3711    1.7858 C   0  0  0  0  0  0  0  0  0  0  0  0
   -0.8363    6.2092    5.5493 C   0  0  0  0  0  0  0  0  0  0  0  0
  1  2  1  0  0  0  0 
  2  3  1  0  0  0  0 
  2  4  1  0  0  0  0 
  2  5  2  0  0  0  0 
  3  6  1  0  0  0  0 
  4  7  1  0  0  0  0 
  8  6  1  0  0  0  0 
  9  7  1  0  0  0  0 
  8 10  1  0  0  0  0 
  8 11  1  0  0  0  0 
  9 12  1  0  0  0  0 
  9 13  1  0  0  0  0 
 10 14  1  0  0  0  0 
 11 15  1  0  0  0  0 
 12 16  1  0  0  0  0 
 13 17  1  0  0  0  0 
 14 18  1  0  0  0  0 
 16 19  1  0  0  0  0 
 18 20  1  0  0  0  0 
 19 21  1  0  0  0  0 
M  END
> <Name>
Phosphorochloridic acid, bis(2-ethylhexyl) ester

> <Source>
Chemidplus3DMolFile

> <Tox>
2.055

> <CAS>
63449-80-9

$$$$

  CDK

 22 23  0  0  0  0  0  0  0  0999 V2000
    3.0767   -2.3387    0.0000 N   0  0  0  0  0  0  0  0  0  0  0  0
    2.7833   -1.0137    0.0000 C   0  0  0  0  0  0  0  0  0  0  0  0
    1.9207   -3.0145    0.0000 C   0  0  0  0  0  0  0  0  0  0  0  0
    4.2327   -3.0145    0.0000 C   0  0  0  0  0  0  0  0  0  0  0  0
    1.4672   -0.8892    0.0000 N   0  0  0  0  0  0  0  0  0  0  0  0
    3.6903   -0.0000    0.0000 O   0  0  0  0  0  0  0  0  0  0  0  0
    0.9159   -2.0986    0.0000 C   0  0  0  0  0  0  0  0  0  0  0  0
    1.9207   -4.3394    0.0000 O   0  0  0  0  0  0  0  0  0  0  0  0
    5.3798   -2.3387    0.0000 C   0  0  0  0  0  0  0  0  0  0  0  0
    4.2327   -4.3394    0.0000 C   0  0  0  0  0  0  0  0  0  0  0  0
    0.4357   -3.1923    0.0000 C   0  0  0  0  0  0  0  0  0  0  0  0
    0.0000   -1.2894    0.0000 C   0  0  0  0  0  0  0  0  0  0  0  0
    6.5447   -3.0145    0.0000 C   0  0  0  0  0  0  0  0  0  0  0  0
    5.3798   -5.0152    0.0000 C   0  0  0  0  0  0  0  0  0  0  0  0
    7.7185   -2.3209    0.0000 C   0  0  0  0  0  0  0  0  0  0  0  0
    6.5447   -4.3394    0.0000 C   0  0  0  0  0  0  0  0  0  0  0  0
    8.8922   -1.6628    0.0000 F   0  0  0  0  0  0  0  0  0  0  0  0
    8.3943   -3.4946    0.0000 F   0  0  0  0  0  0  0  0  0  0  0  0
    7.0515   -1.1471    0.0000 F   0  0  0  0  0  0  0  0  0  0  0  0
    7.7185   -5.0241    0.0000 N   0  0  0  0  0  0  0  0  0  0  0  0
    7.7185   -6.3491    0.0000 O   0  0  0  0  0  0  0  0  0  0  0  0
    8.8744   -4.3483    0.0000 O   0  0  0  0  0  0  0  0  0  0  0  0
  1  2  1  0  0  0  0 
  1  3  1  0  0  0  0 
  1  4  1  0  0  0  0 
  2  5  1  0  0  0  0 
  2  6  2  0  0  0  0 
  3  7  1  0  0  0  0 
  3  8  2  0  0  0  0 
  4  9  2  0  0  0  0 
  4 10  1  0  0  0  0 
  5  7  1  0  0  0  0 
  7 11  1  0  0  0  0 
  7 12  1  0  0  0  0 
 13  9  1  0  0  0  0 
 14 10  2  0  0  0  0 
 13 15  1  0  0  0  0 
 13 16  2  0  0  0  0 
 16 14  1  0  0  0  0 
 15 17  1  0  0  0  0 
 15 18  1  0  0  0  0 
 15 19  1  0  0  0  0 
 20 16  1  0  0  0  0 
 20 21  1  0  0  0  0 
 20 22  2  0  0  0  0 
M  CHG  1  20   1
M  CHG  1  21  -1
M  END
> <Name>
2,4-Imidazolidinedione, 5,5-dimethyl-3-(4-nitro-3-(trifluoromethyl)phenyl)-

> <Source>
DSSTox2DMolFile

> <Tox>
3.211

> <CAS>
63612-50-0

$$$$

  CDK

 28 29  0  0  0  0  0  0  0  0999 V2000
    6.6808   -4.1525    0.0000 C   0  0  0  0  0  0  0  0  0  0  0  0
    7.7957   -4.7933    0.0000 C   0  0  0  0  0  0  0  0  0  0  0  0
    5.5659   -4.7933    0.0000 C   0  0  0  0  0  0  0  0  0  0  0  0
    6.6808   -2.8620    0.0000 N   0  0  0  0  0  0  0  0  0  0  0  0
    5.8644   -5.7766    0.0000 C   0  0  0  0  0  0  0  0  0  0  0  0
    4.4509   -4.1525    0.0000 C   0  0  0  0  0  0  0  0  0  0  0  0
    5.5659   -2.2299    0.0000 C   0  0  0  0  0  0  0  0  0  0  0  0
    4.7319   -6.4438    0.0000 O   0  0  0  0  0  0  0  0  0  0  0  0
    6.6808   -6.4438    0.0000 O   0  0  0  0  0  0  0  0  0  0  0  0
    2.6776   -5.1796    0.0000 C   0  0  0  0  0  0  0  0  0  0  0  0
    4.4509   -2.8620    0.0000 C   0  0  0  0  0  0  0  0  0  0  0  0
    5.5659   -0.9481    0.0000 C   0  0  0  0  0  0  0  0  0  0  0  0
    7.7957   -6.0751    0.0000 C   0  0  0  0  0  0  0  0  0  0  0  0
    1.5627   -4.5387    0.0000 C   0  0  0  0  0  0  0  0  0  0  0  0
    2.6776   -6.4701    0.0000 C   0  0  0  0  0  0  0  0  0  0  0  0
    3.3448   -2.2299    0.0000 C   0  0  0  0  0  0  0  0  0  0  0  0
    0.4389   -5.1796    0.0000 C   0  0  0  0  0  0  0  0  0  0  0  0
    1.5627   -7.1110    0.0000 C   0  0  0  0  0  0  0  0  0  0  0  0
    4.4509   -7.4885    0.0000 N   0  0  0  0  0  0  0  0  0  0  0  0
    3.3448   -0.9481    0.0000 O   0  0  0  0  0  0  0  0  0  0  0  0
    2.2299   -2.8620    0.0000 O   0  0  0  0  0  0  0  0  0  0  0  0
    0.4389   -6.4701    0.0000 C   0  0  0  0  0  0  0  0  0  0  0  0
    5.5659   -8.2961    0.0000 O   0  0  0  0  0  0  0  0  0  0  0  0
    3.5818   -8.7790    0.0000 O   0  0  0  0  0  0  0  0  0  0  0  0
    1.1149   -2.2299    0.0000 C   0  0  0  0  0  0  0  0  0  0  0  0
    1.1149   -0.9481    0.0000 C   0  0  0  0  0  0  0  0  0  0  0  0
    0.0000   -0.2985    0.0000 C   0  0  0  0  0  0  0  0  0  0  0  0
    1.9402   -0.0000    0.0000 C   0  0  0  0  0  0  0  0  0  0  0  0
  1  2  1  0  0  0  0 
  1  3  2  0  0  0  0 
  1  4  1  0  0  0  0 
  3  5  1  0  0  0  0 
  3  6  1  0  0  0  0 
  7  4  1  0  0  0  0 
  5  8  2  0  0  0  0 
  5  9  1  0  0  0  0 
  6 10  1  0  0  0  0 
  6 11  1  0  0  0  0 
 11  7  2  0  0  0  0 
  7 12  1  0  0  0  0 
  9 13  1  0  0  0  0 
 10 14  2  0  0  0  0 
 10 15  1  0  0  0  0 
 11 16  1  0  0  0  0 
 14 17  1  0  0  0  0 
 18 15  2  0  0  0  0 
 15 19  1  0  0  0  0 
 16 20  2  0  0  0  0 
 16 21  1  0  0  0  0 
 17 22  2  0  0  0  0 
 22 18  1  0  0  0  0 
 19 23  1  0  0  0  0 
 19 24  2  0  0  0  0 
 21 25  1  0  0  0  0 
 25 26  1  0  0  0  0 
 26 27  1  0  0  0  0 
 26 28  1  0  0  0  0 
M  CHG  1  19   1
M  CHG  1  23  -1
M  END
> <Name>
3,5-Pyridinedicarboxylic acid, 1,4-dihydro-2,6-dimethyl-4-(2-nitrophenyl)-, methyl 2-methylpropyl ester, (+-)-

> <Source>
DSSTox2DMolFile

> <Tox>
2.490

> <CAS>
63675-72-9

$$$$

  CDK

 20 20  0  0  0  0  0  0  0  0999 V2000
    0.6515    3.1420   -4.5256 S   0  0  0  0  0  0  0  0  0  0  0  0
   -0.2342    2.2193   -6.2173 P   0  0  0  0  0  0  0  0  0  0  0  0
   -0.0180    2.2228   -3.0908 C   0  0  0  0  0  0  0  0  0  0  0  0
    0.0355    3.0601   -7.9695 S   0  0  0  0  0  0  0  0  0  0  0  0
    0.2180    0.6477   -6.2079 O   0  0  0  0  0  0  0  0  0  0  0  0
   -1.8190    2.0004   -5.8796 O   0  0  0  0  0  0  0  0  0  0  0  0
    0.3294    0.8360   -3.2274 O   0  0  0  0  0  0  0  0  0  0  0  0
    0.5184    2.7556   -1.7472 C   0  0  0  0  0  0  0  0  0  0  0  0
    1.5662    0.2881   -6.4598 C   0  0  0  0  0  0  0  0  0  0  0  0
   -2.6902    3.1143   -5.7738 C   0  0  0  0  0  0  0  0  0  0  0  0
   -0.1850    0.0569   -2.1494 C   0  0  0  0  0  0  0  0  0  0  0  0
    0.0258    4.4913   -1.4361 S   0  0  0  0  0  0  0  0  0  0  0  0
    0.0236    1.9358   -0.6767 O   0  0  0  0  0  0  0  0  0  0  0  0
    0.3942    0.5693   -0.8468 C   0  0  0  0  0  0  0  0  0  0  0  0
    0.8741    4.9903    0.4502 P   0  0  0  0  0  0  0  0  0  0  0  0
    0.7870    6.8543    1.0567 S   0  0  0  0  0  0  0  0  0  0  0  0
    0.2422    3.9524    1.5447 O   0  0  0  0  0  0  0  0  0  0  0  0
    2.4050    4.4158    0.4518 O   0  0  0  0  0  0  0  0  0  0  0  0
   -1.1253    4.0396    1.9091 C   0  0  0  0  0  0  0  0  0  0  0  0
    3.3939    5.0078   -0.3744 C   0  0  0  0  0  0  0  0  0  0  0  0
  1  2  1  0  0  0  0 
  1  3  1  0  0  0  0 
  4  2  2  0  0  0  0 
  2  5  1  0  0  0  0 
  2  6  1  0  0  0  0 
  7  3  1  0  0  0  0 
  3  8  1  0  0  0  0 
  5  9  1  0  0  0  0 
  6 10  1  0  0  0  0 
  7 11  1  0  0  0  0 
 12  8  1  0  0  0  0 
 13  8  1  0  0  0  0 
 11 14  1  0  0  0  0 
 12 15  1  0  0  0  0 
 13 14  1  0  0  0  0 
 16 15  2  0  0  0  0 
 15 17  1  0  0  0  0 
 15 18  1  0  0  0  0 
 17 19  1  0  0  0  0 
 18 20  1  0  0  0  0 
M  END
> <Name>
Phosphorodithioic acid, O,O-dimethyl ester, S,S-diester with 2,3-p-dioxanedithiol

> <Source>
Chemidplus3DMolFile

> <Tox>
3.058

> <CAS>
63717-18-0

$$$$

  CDK

 15 14  0  0  0  0  0  0  0  0999 V2000
    2.6507   -1.0882    0.0000 O   0  0  0  0  0  0  0  0  0  0  0  0
    1.8405   -0.9322    0.0000 C   0  0  0  0  0  0  0  0  0  0  0  0
    1.0304   -0.7763    0.0000 C   0  0  0  0  0  0  0  0  0  0  0  0
    0.2203   -0.6204    0.0000 N   0  0  0  0  0  0  0  0  0  0  0  0
   -0.3198   -1.2441    0.0000 C   0  0  0  0  0  0  0  0  0  0  0  0
   -0.0498    0.1591    0.0000 C   0  0  0  0  0  0  0  0  0  0  0  0
   -0.8599   -1.8677    0.0000 C   0  0  0  0  0  0  0  0  0  0  0  0
    0.4903    0.7828    0.0000 S   0  0  0  0  0  0  0  0  0  0  0  0
   -0.8599    0.3150    0.0000 N   0  0  0  0  0  0  0  0  0  0  0  0
   -1.1299    1.0946    0.0000 P   0  0  0  0  0  0  0  0  0  0  0  0
   -1.9095    0.8245    0.0000 S   0  0  0  0  0  0  0  0  0  0  0  0
   -0.3504    1.3646    0.0000 O   0  0  0  0  0  0  0  0  0  0  0  0
   -1.4000    1.8741    0.0000 O   0  0  0  0  0  0  0  0  0  0  0  0
    0.2732    0.8245    0.0000 C   0  0  0  0  0  0  0  0  0  0  0  0
   -0.8599    2.4978    0.0000 C   0  0  0  0  0  0  0  0  0  0  0  0
  1  2  1  0  0  0  0 
  2  3  1  0  0  0  0 
  3  4  1  0  0  0  0 
  4  5  1  0  0  0  0 
  4  6  1  0  0  0  0 
  5  7  1  0  0  0  0 
  6  8  2  0  0  0  0 
  6  9  1  0  0  0  0 
  9 10  1  0  0  0  0 
 10 11  2  0  0  0  0 
 10 12  1  0  0  0  0 
 10 13  1  0  0  0  0 
 12 14  1  0  0  0  0 
 13 15  1  0  0  0  0 
M  END
> <Name>
Phosphoramidothioic acid, (ethyl(2-hydroxyethyl)-thiocarbamoyl)-, O,O-dimethyl ester

> <Source>
Smiles

> <Tox>
4.205

> <CAS>
63815-58-7

$$$$

  CDK

 12 11  0  0  0  0  0  0  0  0999 V2000
    2.1020    1.0083   -0.2616 C   0  0  0  0  0  0  0  0  0  0  0  0
    1.5872   -0.3008    0.3398 C   0  0  0  0  0  0  0  0  0  0  0  0
    2.4726    2.0148    0.3164 O   0  0  0  0  0  0  0  0  0  0  0  0
    2.2053    1.0368   -1.6090 O   0  0  0  0  0  0  0  0  0  0  0  0
    0.1646   -0.6340   -0.1706 C   0  0  0  0  0  0  0  0  0  0  0  0
    1.5746   -0.2764    1.7501 O   0  0  0  0  0  0  0  0  0  0  0  0
   -0.8988    0.2934    0.4179 C   0  0  0  0  0  0  0  0  0  0  0  0
   -0.1729   -2.0979    0.1268 C   0  0  0  0  0  0  0  0  0  0  0  0
   -2.2337    0.1175   -0.2903 C   0  0  0  0  0  0  0  0  0  0  0  0
    0.7026   -3.0472   -0.6598 C   0  0  0  0  0  0  0  0  0  0  0  0
   -3.3339    0.9147    0.3894 C   0  0  0  0  0  0  0  0  0  0  0  0
   -4.6568    0.7510   -0.3243 C   0  0  0  0  0  0  0  0  0  0  0  0
  1  2  1  0  0  0  0 
  1  3  2  0  0  0  0 
  1  4  1  0  0  0  0 
  2  5  1  0  0  0  0 
  2  6  1  0  0  0  0 
  5  7  1  0  0  0  0 
  5  8  1  0  0  0  0 
  7  9  1  0  0  0  0 
  8 10  1  0  0  0  0 
  9 11  1  0  0  0  0 
 11 12  1  0  0  0  0 
M  END
> <Name>
Heptanoic acid, 3-ethyl-2-hydroxy-

> <Source>
DougDB3DMolFile

> <Tox>
1.710

> <CAS>
63834-30-0

$$$$

  CDK

 49 51  0  0  0  0  0  0  0  0999 V2000
   -1.1810   -0.9144   -2.2486 O   0  0  0  0  0  0  0  0  0  0  0  0
   -0.4121    0.2813   -2.1631 C   0  0  0  0  0  0  0  0  0  0  0  0
   -0.7840   -1.9375   -1.4374 C   0  0  0  0  0  0  0  0  0  0  0  0
   -1.0281    1.1786   -1.1063 C   0  0  0  0  0  0  0  0  0  0  0  0
   -0.4646    1.0162   -3.4900 C   0  0  0  0  0  0  0  0  0  0  0  0
    0.1669   -1.8855   -0.6647 O   0  0  0  0  0  0  0  0  0  0  0  0
   -1.7308   -3.1524   -1.5525 C   0  0  0  0  0  0  0  0  0  0  0  0
   -0.3107    2.5451   -0.9739 C   0  0  0  0  0  0  0  0  0  0  0  0
    0.2779    2.3755   -3.4621 C   0  0  0  0  0  0  0  0  0  0  0  0
   -3.1864   -2.7477   -1.2263 C   0  0  0  0  0  0  0  0  0  0  0  0
   -1.3346   -4.3060   -0.5847 C   0  0  0  0  0  0  0  0  0  0  0  0
   -1.7071   -3.6177   -3.0446 C   0  0  0  0  0  0  0  0  0  0  0  0
   -0.1363    3.2109   -2.2975 N   0  0  0  0  0  0  0  0  0  0  0  0
   -1.2470    3.4128   -0.0877 C   0  0  0  0  0  0  0  0  0  0  0  0
    1.0021    2.3518   -0.1808 C   0  0  0  0  0  0  0  0  0  0  0  0
   -0.1373    3.0935   -4.7763 C   0  0  0  0  0  0  0  0  0  0  0  0
    1.7999    2.1211   -3.5538 C   0  0  0  0  0  0  0  0  0  0  0  0
   -4.0229   -3.8310   -1.2901 O   0  0  0  0  0  0  0  0  0  0  0  0
   -3.5397   -1.6157   -0.9182 O   0  0  0  0  0  0  0  0  0  0  0  0
   -1.4560   -3.9474    0.9066 C   0  0  0  0  0  0  0  0  0  0  0  0
   -0.3757   -4.0679   -3.6024 C   0  0  0  0  0  0  0  0  0  0  0  0
    0.5528    4.5046   -2.2227 C   0  0  0  0  0  0  0  0  0  0  0  0
   -5.3887   -3.5852   -0.9698 C   0  0  0  0  0  0  0  0  0  0  0  0
   -1.1407   -5.1248    1.8341 C   0  0  0  0  0  0  0  0  0  0  0  0
    0.0016   -5.4077   -3.5103 C   0  0  0  0  0  0  0  0  0  0  0  0
    0.4746   -3.1442   -4.2100 C   0  0  0  0  0  0  0  0  0  0  0  0
   -5.5843   -3.8060    0.5182 C   0  0  0  0  0  0  0  0  0  0  0  0
   -6.2710   -4.5737   -1.7100 C   0  0  0  0  0  0  0  0  0  0  0  0
   -1.1927   -4.7655    3.3110 C   0  0  0  0  0  0  0  0  0  0  0  0
    1.2291   -5.8237   -4.0258 C   0  0  0  0  0  0  0  0  0  0  0  0
    1.7022   -3.5602   -4.7255 C   0  0  0  0  0  0  0  0  0  0  0  0
   -7.0553   -3.6325    0.9715 C   0  0  0  0  0  0  0  0  0  0  0  0
   -7.7722   -4.4335   -1.3546 C   0  0  0  0  0  0  0  0  0  0  0  0
    1.6151   -7.2624   -3.9173 C   0  0  0  0  0  0  0  0  0  0  0  0
    2.0794   -4.8999   -4.6335 C   0  0  0  0  0  0  0  0  0  0  0  0
    2.5992   -2.5566   -5.3718 C   0  0  0  0  0  0  0  0  0  0  0  0
   -7.9948   -4.4192    0.1206 N   0  0  0  0  0  0  0  0  0  0  0  0
   -7.1019   -4.1836    2.4238 C   0  0  0  0  0  0  0  0  0  0  0  0
   -7.3836   -2.1242    1.0555 C   0  0  0  0  0  0  0  0  0  0  0  0
   -8.4533   -5.6926   -1.9594 C   0  0  0  0  0  0  0  0  0  0  0  0
   -8.3548   -3.2098   -2.0982 C   0  0  0  0  0  0  0  0  0  0  0  0
    1.8701   -7.9914   -5.2772 C   0  0  0  0  0  0  0  0  0  0  0  0
    2.9323   -7.4326   -3.0998 C   0  0  0  0  0  0  0  0  0  0  0  0
    0.5049   -8.0913   -3.2016 C   0  0  0  0  0  0  0  0  0  0  0  0
    3.2794   -5.3064   -5.1386 O   0  0  0  0  0  0  0  0  0  0  0  0
    1.9603   -1.1340   -5.3521 C   0  0  0  0  0  0  0  0  0  0  0  0
    4.0066   -2.3916   -4.7096 C   0  0  0  0  0  0  0  0  0  0  0  0
    2.8802   -2.9269   -6.8605 C   0  0  0  0  0  0  0  0  0  0  0  0
   -9.4038   -4.2740    0.5048 C   0  0  0  0  0  0  0  0  0  0  0  0
  1  2  1  0  0  0  0 
  1  3  1  0  0  0  0 
  4  2  1  0  0  0  0 
  5  2  1  0  0  0  0 
  6  3  2  0  0  0  0 
  7  3  1  0  0  0  0 
  8  4  1  0  0  0  0 
  9  5  1  0  0  0  0 
  7 10  1  0  0  0  0 
  7 11  1  0  0  0  0 
  7 12  1  0  0  0  0 
 13  8  1  0  0  0  0 
  8 14  1  0  0  0  0 
  8 15  1  0  0  0  0 
 13  9  1  0  0  0  0 
  9 16  1  0  0  0  0 
  9 17  1  0  0  0  0 
 18 10  1  0  0  0  0 
 19 10  2  0  0  0  0 
 11 20  1  0  0  0  0 
 12 21  1  0  0  0  0 
 13 22  1  0  0  0  0 
 18 23  1  0  0  0  0 
 20 24  1  0  0  0  0 
 21 25  2  0  0  0  0 
 21 26  1  0  0  0  0 
 27 23  1  0  0  0  0 
 28 23  1  0  0  0  0 
 24 29  1  0  0  0  0 
 25 30  1  0  0  0  0 
 26 31  2  0  0  0  0 
 32 27  1  0  0  0  0 
 33 28  1  0  0  0  0 
 30 34  1  0  0  0  0 
 30 35  2  0  0  0  0 
 31 36  1  0  0  0  0 
 31 35  1  0  0  0  0 
 37 32  1  0  0  0  0 
 32 38  1  0  0  0  0 
 32 39  1  0  0  0  0 
 37 33  1  0  0  0  0 
 33 40  1  0  0  0  0 
 33 41  1  0  0  0  0 
 34 42  1  0  0  0  0 
 34 43  1  0  0  0  0 
 34 44  1  0  0  0  0 
 45 35  1  0  0  0  0 
 36 46  1  0  0  0  0 
 36 47  1  0  0  0  0 
 36 48  1  0  0  0  0 
 37 49  1  0  0  0  0 
M  END
> <Name>
Propanedioic acid, ((3,5-bis(1,1-dimethylethyl)-4-hydroxyphenyl)methyl)butyl-, bis(1,2,2,6,6-pentamethyl-4-piperidinyl) ester

> <Source>
Chemidplus3DMolFile

> <Tox>
2.660

> <CAS>
63843-89-0

$$$$

  CDK

 27 27  0  0  0  0  0  0  0  0999 V2000
    0.9919    1.0582    0.0000 C   0  0  0  0  0  0  0  0  0  0  0  0
    0.1683    0.8134    0.0000 C   0  0  0  0  0  0  0  0  0  0  0  0
    0.8832    0.4491    0.0000 O   0  0  0  0  0  0  0  0  0  0  0  0
    1.1363   -0.3224    0.0000 P   0  0  0  0  0  0  0  0  0  0  0  0
    0.4101   -0.5878    0.0000 O   0  0  0  0  0  0  0  0  0  0  0  0
    1.9612   -0.2850    0.0000 O   0  0  0  0  0  0  0  0  0  0  0  0
    0.2935   -0.1072    0.0000 C   0  0  0  0  0  0  0  0  0  0  0  0
    2.7648   -0.4801    0.0000 C   0  0  0  0  0  0  0  0  0  0  0  0
    0.1514   -0.9663    0.0000 S   0  0  0  0  0  0  0  0  0  0  0  0
   -0.2198    0.5885    0.0000 S   0  0  0  0  0  0  0  0  0  0  0  0
   -0.3605   -0.6465    0.0000 P   0  0  0  0  0  0  0  0  0  0  0  0
    3.4343   -0.9726    0.0000 C   0  0  0  0  0  0  0  0  0  0  0  0
    0.4603   -1.7364    0.0000 C   0  0  0  0  0  0  0  0  0  0  0  0
   -0.2004    1.4485    0.0000 C   0  0  0  0  0  0  0  0  0  0  0  0
   -0.2899   -1.4670    0.0000 O   0  0  0  0  0  0  0  0  0  0  0  0
   -0.9342   -1.2736    0.0000 O   0  0  0  0  0  0  0  0  0  0  0  0
   -1.1536   -0.4930    0.0000 O   0  0  0  0  0  0  0  0  0  0  0  0
    0.8975   -2.4376    0.0000 C   0  0  0  0  0  0  0  0  0  0  0  0
    0.4672    1.8903    0.0000 C   0  0  0  0  0  0  0  0  0  0  0  0
   -0.9598    1.8395    0.0000 C   0  0  0  0  0  0  0  0  0  0  0  0
   -1.7219   -1.5732    0.0000 C   0  0  0  0  0  0  0  0  0  0  0  0
   -1.6297    0.1750    0.0000 C   0  0  0  0  0  0  0  0  0  0  0  0
    0.4257    2.7079    0.0000 C   0  0  0  0  0  0  0  0  0  0  0  0
   -0.9901    2.6407    0.0000 C   0  0  0  0  0  0  0  0  0  0  0  0
   -2.5439   -1.4134    0.0000 C   0  0  0  0  0  0  0  0  0  0  0  0
   -2.1489    0.8175    0.0000 C   0  0  0  0  0  0  0  0  0  0  0  0
   -0.3205    3.1063    0.0000 C   0  0  0  0  0  0  0  0  0  0  0  0
  1  2  1  0  0  0  0 
  2  3  1  0  0  0  0 
  3  4  1  0  0  0  0 
  4  5  2  0  0  0  0 
  4  6  1  0  0  0  0 
  4  7  1  0  0  0  0 
  6  8  1  0  0  0  0 
  7  9  1  0  0  0  0 
  7 10  1  0  0  0  0 
  7 11  1  0  0  0  0 
  8 12  1  0  0  0  0 
  9 13  1  0  0  0  0 
 10 14  1  0  0  0  0 
 11 15  2  0  0  0  0 
 11 16  1  0  0  0  0 
 11 17  1  0  0  0  0 
 13 18  1  0  0  0  0 
 14 19  1  0  0  0  0 
 14 20  2  0  0  0  0 
 16 21  1  0  0  0  0 
 17 22  1  0  0  0  0 
 19 23  2  0  0  0  0 
 24 20  1  0  0  0  0 
 21 25  1  0  0  0  0 
 22 26  1  0  0  0  0 
 23 27  1  0  0  0  0 
 27 24  2  0  0  0  0 
M  END
> <Name>
Phosphonic acid, ((ethylthio)(phenylthio)methylene)bis-, tetraethyl ester

> <Source>
Smiles

> <Tox>
4.279

> <CAS>
63869-22-7

$$$$

  CDK

 12 11  0  0  0  0  0  0  0  0999 V2000
    0.8644   -4.7126   -0.0720 S   0  0  0  0  0  0  0  0  0  0  0  0
    0.6887   -2.6964   -0.6379 P   0  0  0  0  0  0  0  0  0  0  0  0
    2.5485   -4.8859    0.5504 C   0  0  0  0  0  0  0  0  0  0  0  0
    0.8541   -1.7560    0.6784 O   0  0  0  0  0  0  0  0  0  0  0  0
   -0.8260   -2.3670   -1.1280 O   0  0  0  0  0  0  0  0  0  0  0  0
    1.7010   -2.3656   -1.7040 O   0  0  0  0  0  0  0  0  0  0  0  0
    2.8091   -6.3384    0.9306 C   0  0  0  0  0  0  0  0  0  0  0  0
    2.7559   -3.9541    1.7383 C   0  0  0  0  0  0  0  0  0  0  0  0
    0.7182   -0.3523    0.5359 C   0  0  0  0  0  0  0  0  0  0  0  0
   -1.9211   -2.6111   -0.2623 C   0  0  0  0  0  0  0  0  0  0  0  0
    0.9125    0.3016    1.8873 C   0  0  0  0  0  0  0  0  0  0  0  0
   -3.2027   -2.2182   -0.9656 C   0  0  0  0  0  0  0  0  0  0  0  0
  1  2  1  0  0  0  0 
  1  3  1  0  0  0  0 
  2  4  1  0  0  0  0 
  2  5  1  0  0  0  0 
  2  6  2  0  0  0  0 
  3  7  1  0  0  0  0 
  3  8  1  0  0  0  0 
  4  9  1  0  0  0  0 
  5 10  1  0  0  0  0 
  9 11  1  0  0  0  0 
 10 12  1  0  0  0  0 
M  END
> <Name>
Phosphorothioic acid, O,O-diethyl S-isopropyl ester

> <Source>
Chemidplus3DMolFile

> <Tox>
3.074

> <CAS>
63873-21-2

$$$$

  CDK

 12 11  0  0  0  0  0  0  0  0999 V2000
   -0.7124    2.0709   -2.4403 S   0  0  0  0  0  0  0  0  0  0  0  0
    0.5365    0.6343   -2.8553 P   0  0  0  0  0  0  0  0  0  0  0  0
    0.4015   -0.0482   -4.3259 O   0  0  0  0  0  0  0  0  0  0  0  0
    0.4927   -0.6733   -1.8882 O   0  0  0  0  0  0  0  0  0  0  0  0
    2.1193    1.0093   -2.8186 O   0  0  0  0  0  0  0  0  0  0  0  0
    0.3975    0.7695   -5.4839 C   0  0  0  0  0  0  0  0  0  0  0  0
   -0.7409   -1.3285   -1.6459 C   0  0  0  0  0  0  0  0  0  0  0  0
    2.7395    1.3250   -1.5835 C   0  0  0  0  0  0  0  0  0  0  0  0
    0.1952   -0.1037   -6.7129 C   0  0  0  0  0  0  0  0  0  0  0  0
    1.7020    1.5489   -5.5509 C   0  0  0  0  0  0  0  0  0  0  0  0
   -0.5020   -2.5033   -0.7215 C   0  0  0  0  0  0  0  0  0  0  0  0
    4.2011    1.6325   -1.8302 C   0  0  0  0  0  0  0  0  0  0  0  0
  1  2  2  0  0  0  0 
  2  3  1  0  0  0  0 
  2  4  1  0  0  0  0 
  2  5  1  0  0  0  0 
  3  6  1  0  0  0  0 
  4  7  1  0  0  0  0 
  5  8  1  0  0  0  0 
  6  9  1  0  0  0  0 
  6 10  1  0  0  0  0 
  7 11  1  0  0  0  0 
  8 12  1  0  0  0  0 
M  END
> <Name>
Phosphorothioic acid, O,O-diethyl O-(1-methylethyl) ester

> <Source>
Chemidplus3DMolFile

> <Tox>
2.327

> <CAS>
63873-23-4

$$$$

  CDK

 28 31  0  0  0  0  0  0  0  0999 V2000
    7.0747    2.3960    0.6199 O   0  0  0  0  0  0  0  0  0  0  0  0
    7.8422    3.5563    0.2588 C   0  0  0  0  0  0  0  0  0  0  0  0
    6.3576    2.0527   -0.5691 C   0  0  0  0  0  0  0  0  0  0  0  0
    7.8198    3.7257   -1.1682 O   0  0  0  0  0  0  0  0  0  0  0  0
    7.2256    4.7900    0.9055 C   0  0  0  0  0  0  0  0  0  0  0  0
    9.2798    3.3496    0.7189 C   0  0  0  0  0  0  0  0  0  0  0  0
    7.2904    2.4974   -1.6693 C   0  0  0  0  0  0  0  0  0  0  0  0
    6.0422    0.5724   -0.5915 C   0  0  0  0  0  0  0  0  0  0  0  0
    5.1640    0.2664    0.4964 O   0  0  0  0  0  0  0  0  0  0  0  0
    4.7919   -1.0445    0.6014 C   0  0  0  0  0  0  0  0  0  0  0  0
    5.1430   -1.9497   -0.1432 O   0  0  0  0  0  0  0  0  0  0  0  0
    3.8669   -1.2104    1.7918 C   0  0  0  0  0  0  0  0  0  0  0  0
    3.4472   -2.6212    2.0275 C   0  0  0  0  0  0  0  0  0  0  0  0
    4.2018   -3.4481    2.8551 C   0  0  0  0  0  0  0  0  0  0  0  0
    2.3024   -3.1194    1.4210 C   0  0  0  0  0  0  0  0  0  0  0  0
    3.8273   -4.7831    3.0769 C   0  0  0  0  0  0  0  0  0  0  0  0
    1.9074   -4.4379    1.6558 C   0  0  0  0  0  0  0  0  0  0  0  0
    4.6909   -5.4600    3.8938 O   0  0  0  0  0  0  0  0  0  0  0  0
    2.6550   -5.2868    2.4953 C   0  0  0  0  0  0  0  0  0  0  0  0
    4.8783   -6.8296    3.5590 C   0  0  0  0  0  0  0  0  0  0  0  0
    2.0783   -6.6443    2.7248 C   0  0  0  0  0  0  0  0  0  0  0  0
    3.8196   -7.6380    4.2352 C   0  0  0  0  0  0  0  0  0  0  0  0
    1.1945   -7.0592    1.9774 O   0  0  0  0  0  0  0  0  0  0  0  0
    2.4847   -7.5249    3.8393 C   0  0  0  0  0  0  0  0  0  0  0  0
    4.1508   -8.5136    5.2791 C   0  0  0  0  0  0  0  0  0  0  0  0
    1.4966   -8.2972    4.4662 C   0  0  0  0  0  0  0  0  0  0  0  0
    3.1649   -9.2730    5.9095 C   0  0  0  0  0  0  0  0  0  0  0  0
    1.8383   -9.1657    5.5020 C   0  0  0  0  0  0  0  0  0  0  0  0
  1  2  1  0  0  0  0 
  1  3  1  0  0  0  0 
  4  2  1  0  0  0  0 
  2  5  1  0  0  0  0 
  2  6  1  0  0  0  0 
  3  7  1  0  0  0  0 
  3  8  1  0  0  0  0 
  4  7  1  0  0  0  0 
  9  8  1  0  0  0  0 
  9 10  1  0  0  0  0 
 11 10  2  0  0  0  0 
 12 10  1  0  0  0  0 
 12 13  1  0  0  0  0 
 13 14  2  0  0  0  0 
 13 15  1  0  0  0  0 
 16 14  1  0  0  0  0 
 15 17  2  0  0  0  0 
 18 16  1  0  0  0  0 
 19 16  2  0  0  0  0 
 19 17  1  0  0  0  0 
 18 20  1  0  0  0  0 
 19 21  1  0  0  0  0 
 22 20  1  0  0  0  0 
 23 21  2  0  0  0  0 
 24 21  1  0  0  0  0 
 22 24  1  0  0  0  0 
 22 25  2  0  0  0  0 
 24 26  2  0  0  0  0 
 25 27  1  0  0  0  0 
 26 28  1  0  0  0  0 
 27 28  2  0  0  0  0 
M  END
> <Name>
Dibenz(b,e)oxepin-3-acetic acid, 6,11-dihydro-11-oxo-, (2,2-dimethyl-1,3-dioxolan-4-yl)methyl ester

> <Source>
Chemidplus3DMolFile

> <Tox>
3.619

> <CAS>
63883-18-1

$$$$

  CDK

 25 27  0  0  0  0  0  0  0  0999 V2000
    3.5338   -3.8155    0.6785 O   0  0  0  0  0  0  0  0  0  0  0  0
    2.5568   -2.8602    0.6140 C   0  0  0  0  0  0  0  0  0  0  0  0
    3.0837   -5.1019    1.0855 C   0  0  0  0  0  0  0  0  0  0  0  0
    1.4627   -2.7203    1.4799 C   0  0  0  0  0  0  0  0  0  0  0  0
    2.7393   -1.9475   -0.4374 C   0  0  0  0  0  0  0  0  0  0  0  0
    3.1089   -5.1692    2.5776 C   0  0  0  0  0  0  0  0  0  0  0  0
    1.1988   -3.5449    2.6959 C   0  0  0  0  0  0  0  0  0  0  0  0
    0.5430   -1.6825    1.2323 C   0  0  0  0  0  0  0  0  0  0  0  0
    1.8235   -0.9237   -0.6635 C   0  0  0  0  0  0  0  0  0  0  0  0
    2.2161   -4.4058    3.3336 C   0  0  0  0  0  0  0  0  0  0  0  0
    4.0325   -5.9925    3.2373 C   0  0  0  0  0  0  0  0  0  0  0  0
    0.0923   -3.4962    3.2299 O   0  0  0  0  0  0  0  0  0  0  0  0
    0.7197   -0.7958    0.1684 C   0  0  0  0  0  0  0  0  0  0  0  0
    2.0252    0.0281   -1.7929 C   0  0  0  0  0  0  0  0  0  0  0  0
    2.2329   -4.4840    4.7334 C   0  0  0  0  0  0  0  0  0  0  0  0
    4.0555   -6.0606    4.6304 C   0  0  0  0  0  0  0  0  0  0  0  0
    1.3773   -0.4228   -3.0879 C   0  0  0  0  0  0  0  0  0  0  0  0
    3.1548   -5.3076    5.3781 C   0  0  0  0  0  0  0  0  0  0  0  0
    1.6591    0.4809   -4.0737 O   0  0  0  0  0  0  0  0  0  0  0  0
    0.7077   -1.4385   -3.2185 O   0  0  0  0  0  0  0  0  0  0  0  0
    1.1066    0.1822   -5.3598 C   0  0  0  0  0  0  0  0  0  0  0  0
    1.4985    1.2676   -6.3558 C   0  0  0  0  0  0  0  0  0  0  0  0
    0.9632    2.5155   -5.9090 O   0  0  0  0  0  0  0  0  0  0  0  0
    0.9331    0.9827   -7.7411 C   0  0  0  0  0  0  0  0  0  0  0  0
    1.3065    2.0396   -8.6190 O   0  0  0  0  0  0  0  0  0  0  0  0
  1  2  1  0  0  0  0 
  1  3  1  0  0  0  0 
  4  2  2  0  0  0  0 
  2  5  1  0  0  0  0 
  6  3  1  0  0  0  0 
  4  7  1  0  0  0  0 
  4  8  1  0  0  0  0 
  9  5  2  0  0  0  0 
  6 10  1  0  0  0  0 
  6 11  2  0  0  0  0 
 12  7  2  0  0  0  0 
 10  7  1  0  0  0  0 
  8 13  2  0  0  0  0 
  9 14  1  0  0  0  0 
  9 13  1  0  0  0  0 
 10 15  2  0  0  0  0 
 11 16  1  0  0  0  0 
 14 17  1  0  0  0  0 
 15 18  1  0  0  0  0 
 16 18  2  0  0  0  0 
 19 17  1  0  0  0  0 
 20 17  2  0  0  0  0 
 19 21  1  0  0  0  0 
 22 21  1  0  0  0  0 
 23 22  1  0  0  0  0 
 22 24  1  0  0  0  0 
 25 24  1  0  0  0  0 
M  END
> <Name>
Dibenz(b,e)oxepin-3-acetic acid, 6,11-dihydro-11-oxo-, (2,3-dihydroxypropyl) ester

> <Source>
Chemidplus3DMolFile

> <Tox>
3.557

> <CAS>
63883-19-2

$$$$

  CDK

 17 17  0  0  0  0  0  0  0  0999 V2000
   -0.8599    0.2883    0.7491 C   0  0  0  0  0  0  0  0  0  0  0  0
    0.1245   -0.7712    0.3686 C   0  0  0  0  0  0  0  0  0  0  0  0
   -0.5658    1.1910    1.5203 O   0  0  0  0  0  0  0  0  0  0  0  0
   -2.2028    0.1742    0.2785 N   0  0  0  0  0  0  0  0  0  0  0  0
    1.2074   -0.4884   -0.4788 C   0  0  0  0  0  0  0  0  0  0  0  0
    0.0188   -2.0435    0.9326 C   0  0  0  0  0  0  0  0  0  0  0  0
   -2.4725   -0.6090   -0.9625 C   0  0  0  0  0  0  0  0  0  0  0  0
   -3.1613    1.2907    0.5063 C   0  0  0  0  0  0  0  0  0  0  0  0
    2.1878   -1.4588   -0.7246 C   0  0  0  0  0  0  0  0  0  0  0  0
    1.2006    0.7380   -1.1220 O   0  0  0  0  0  0  0  0  0  0  0  0
    0.9829   -3.0099    0.6725 C   0  0  0  0  0  0  0  0  0  0  0  0
   -3.3745   -1.7932   -0.6718 C   0  0  0  0  0  0  0  0  0  0  0  0
   -3.1482    2.3382   -0.5916 C   0  0  0  0  0  0  0  0  0  0  0  0
    2.0698   -2.7142   -0.1460 C   0  0  0  0  0  0  0  0  0  0  0  0
    2.4620    1.3741   -1.2680 C   0  0  0  0  0  0  0  0  0  0  0  0
    2.7369    2.3562   -0.1166 C   0  0  0  0  0  0  0  0  0  0  0  0
    3.0046    1.7170    1.0988 O   0  0  0  0  0  0  0  0  0  0  0  0
  1  2  1  0  0  0  0 
  1  3  2  0  0  0  0 
  1  4  1  0  0  0  0 
  2  5  1  0  0  0  0 
  2  6  2  0  0  0  0 
  4  7  1  0  0  0  0 
  4  8  1  0  0  0  0 
  5  9  2  0  0  0  0 
  5 10  1  0  0  0  0 
 11  6  1  0  0  0  0 
  7 12  1  0  0  0  0 
  8 13  1  0  0  0  0 
  9 14  1  0  0  0  0 
 10 15  1  0  0  0  0 
 14 11  2  0  0  0  0 
 15 16  1  0  0  0  0 
 16 17  1  0  0  0  0 
M  END
> <Name>
Benzamide, N,N-diethyl-o-(beta-hydroxyethoxy)-

> <Source>
DougDB3DMolFile

> <Tox>
2.500

> <CAS>
63886-92-0

$$$$

  CDK

 11 11  0  0  0  0  0  0  0  0999 V2000
    0.7738   -0.9848    0.0000 N   0  0  0  0  0  0  0  0  0  0  0  0
    0.7738   -1.8098    0.0000 C   0  0  0  0  0  0  0  0  0  0  0  0
    1.4883   -0.5723    0.0000 C   0  0  0  0  0  0  0  0  0  0  0  0
    0.0594   -0.5723    0.0000 C   0  0  0  0  0  0  0  0  0  0  0  0
    2.2028   -0.9848    0.0000 S   0  0  0  0  0  0  0  0  0  0  0  0
    1.4883    0.2527    0.0000 S   0  0  0  0  0  0  0  0  0  0  0  0
    0.0594    0.2527    0.0000 N   0  0  0  0  0  0  0  0  0  0  0  0
    0.7738    0.6652    0.0000 C   0  0  0  0  0  0  0  0  0  0  0  0
   -0.6551    0.6652    0.0000 C   0  0  0  0  0  0  0  0  0  0  0  0
   -1.3696    1.0777    0.0000 C   0  0  0  0  0  0  0  0  0  0  0  0
   -2.0841    1.4902    0.0000 O   0  0  0  0  0  0  0  0  0  0  0  0
  1  2  1  0  0  0  0 
  1  3  1  0  0  0  0 
  1  4  1  0  0  0  0 
  3  5  2  0  0  0  0 
  3  6  1  0  0  0  0 
  7  4  1  0  0  0  0 
  6  8  1  0  0  0  0 
  8  7  1  0  0  0  0 
  7  9  1  0  0  0  0 
  9 10  1  0  0  0  0 
 10 11  1  0  0  0  0 
M  END
> <Name>
2H-1,3,5-Thiadiazine-2-thione, tetrahydro-5-(2-hydroxyethyl)-3-methyl-

> <Source>
Smiles

> <Tox>
2.284

> <CAS>
63906-70-7

$$$$

  CDK

 30 31  0  0  0  0  0  0  0  0999 V2000
    9.7013    3.0316    0.0000 C   0  0  0  0  0  0  0  0  0  0  0  0
   11.1005    3.0316    0.0000 C   0  0  0  0  0  0  0  0  0  0  0  0
   10.4009    4.2443    0.0000 O   0  0  0  0  0  0  0  0  0  0  0  0
    8.4886    2.3320    0.0000 C   0  0  0  0  0  0  0  0  0  0  0  0
   12.3132    2.3320    0.0000 C   0  0  0  0  0  0  0  0  0  0  0  0
    7.2760    3.0316    0.0000 C   0  0  0  0  0  0  0  0  0  0  0  0
   13.5258    3.0316    0.0000 C   0  0  0  0  0  0  0  0  0  0  0  0
    6.0633    2.3320    0.0000 C   0  0  0  0  0  0  0  0  0  0  0  0
   14.7385    2.3320    0.0000 C   0  0  0  0  0  0  0  0  0  0  0  0
    4.8506    3.0316    0.0000 C   0  0  0  0  0  0  0  0  0  0  0  0
   15.9511    3.0316    0.0000 C   0  0  0  0  0  0  0  0  0  0  0  0
    3.6380    2.3320    0.0000 C   0  0  0  0  0  0  0  0  0  0  0  0
   17.1638    2.3320    0.0000 C   0  0  0  0  0  0  0  0  0  0  0  0
    2.4253    3.0316    0.0000 C   0  0  0  0  0  0  0  0  0  0  0  0
   18.3765    3.0316    0.0000 C   0  0  0  0  0  0  0  0  0  0  0  0
    1.2127    2.3320    0.0000 C   0  0  0  0  0  0  0  0  0  0  0  0
   19.5891    2.3320    0.0000 C   0  0  0  0  0  0  0  0  0  0  0  0
    0.0000    3.0316    0.0000 C   0  0  0  0  0  0  0  0  0  0  0  0
   20.8018    3.0316    0.0000 C   0  0  0  0  0  0  0  0  0  0  0  0
   22.0144    2.3320    0.0000 O   0  0  0  0  0  0  0  0  0  0  0  0
   20.8018    4.4309    0.0000 O   0  0  0  0  0  0  0  0  0  0  0  0
   23.2271    3.0316    0.0000 C   0  0  0  0  0  0  0  0  0  0  0  0
   24.4398    2.3320    0.0000 C   0  0  0  0  0  0  0  0  0  0  0  0
   25.8390    2.3320    0.0000 C   0  0  0  0  0  0  0  0  0  0  0  0
   25.1394    3.5447    0.0000 O   0  0  0  0  0  0  0  0  0  0  0  0
   24.0666    0.9795    0.0000 C   0  0  0  0  0  0  0  0  0  0  0  0
   27.0516    1.6324    0.0000 C   0  0  0  0  0  0  0  0  0  0  0  0
   25.0461    0.0000    0.0000 C   0  0  0  0  0  0  0  0  0  0  0  0
   28.2643    2.3320    0.0000 C   0  0  0  0  0  0  0  0  0  0  0  0
   29.4770    1.6324    0.0000 C   0  0  0  0  0  0  0  0  0  0  0  0
  1  2  1  0  0  0  0 
  1  3  1  0  0  0  0 
  1  4  1  0  0  0  0 
  2  3  1  0  0  0  0 
  2  5  1  0  0  0  0 
  4  6  1  0  0  0  0 
  5  7  1  0  0  0  0 
  6  8  1  0  0  0  0 
  7  9  1  0  0  0  0 
  8 10  1  0  0  0  0 
  9 11  1  0  0  0  0 
 10 12  1  0  0  0  0 
 11 13  1  0  0  0  0 
 12 14  1  0  0  0  0 
 13 15  1  0  0  0  0 
 14 16  1  0  0  0  0 
 15 17  1  0  0  0  0 
 16 18  1  0  0  0  0 
 17 19  1  0  0  0  0 
 19 20  1  0  0  0  0 
 19 21  2  0  0  0  0 
 20 22  1  0  0  0  0 
 22 23  1  0  0  0  0 
 23 24  1  0  0  0  0 
 23 25  1  0  0  0  0 
 23 26  1  0  0  0  0 
 24 25  1  0  0  0  0 
 24 27  1  0  0  0  0 
 26 28  1  0  0  0  0 
 27 29  1  0  0  0  0 
 29 30  1  0  0  0  0 
M  END
> <Name>
Octadecanoic acid, 9,10-epoxy-, 2,3-epoxy-2-ethylhexyl ester

> <Source>
IndexNet2DMolFile

> <Tox>
0.975

> <CAS>
63907-12-0

$$$$

  CDK

  9  9  0  0  0  0  0  0  0  0999 V2000
    0.2881    0.3222    1.3814 O   0  0  0  0  0  0  0  0  0  0  0  0
    1.0886    1.4579    1.0618 C   0  0  0  0  0  0  0  0  0  0  0  0
    1.7104    0.1443    1.3976 C   0  0  0  0  0  0  0  0  0  0  0  0
    0.9710    1.8628   -0.3788 C   0  0  0  0  0  0  0  0  0  0  0  0
    1.0285    2.5439    2.0554 C   0  0  0  0  0  0  0  0  0  0  0  0
    2.2289    2.5305   -0.9906 C   0  0  0  0  0  0  0  0  0  0  0  0
    2.0924    4.0561   -0.8118 C   0  0  0  0  0  0  0  0  0  0  0  0
    2.3489    2.2284   -2.4939 C   0  0  0  0  0  0  0  0  0  0  0  0
    3.5109    2.0724   -0.2751 C   0  0  0  0  0  0  0  0  0  0  0  0
  1  2  1  0  0  0  0 
  1  3  1  0  0  0  0 
  2  4  1  0  0  0  0 
  2  3  1  0  0  0  0 
  2  5  1  0  0  0  0 
  4  6  1  0  0  0  0 
  6  7  1  0  0  0  0 
  6  8  1  0  0  0  0 
  6  9  1  0  0  0  0 
M  END
> <Name>
Diisobutylene oxide

> <Source>
Chemidplus3DMolFile

> <Tox>
1.416

> <CAS>
63919-00-6

$$$$

  CDK

 11 10  0  0  0  0  0  0  0  0999 V2000
    1.6853    1.1500    1.2764 C   0  0  0  0  0  0  0  0  0  0  0  0
    1.6585    0.7359   -0.1165 C   0  0  0  0  0  0  0  0  0  0  0  0
    1.9637    2.2955    1.5981 O   0  0  0  0  0  0  0  0  0  0  0  0
    0.2858    0.1176   -0.5609 C   0  0  0  0  0  0  0  0  0  0  0  0
    2.8234   -0.2715   -0.3428 C   0  0  0  0  0  0  0  0  0  0  0  0
   -1.0370    0.9940   -0.5484 C   0  0  0  0  0  0  0  0  0  0  0  0
   -1.4947    1.3953    0.8918 C   0  0  0  0  0  0  0  0  0  0  0  0
   -2.1593    0.2121   -1.0824 C   0  0  0  0  0  0  0  0  0  0  0  0
   -0.8503    2.2757   -1.4280 C   0  0  0  0  0  0  0  0  0  0  0  0
   -1.6943    0.2367    1.7035 O   0  0  0  0  0  0  0  0  0  0  0  0
   -2.3058   -0.9657   -0.7874 O   0  0  0  0  0  0  0  0  0  0  0  0
  2  1  1  0  0  0  0 
  1  3  2  0  0  0  0 
  4  2  1  0  0  0  0 
  2  5  1  0  0  0  0 
  6  4  1  0  0  0  0 
  7  6  1  0  0  0  0 
  6  8  1  0  0  0  0 
  6  9  1  0  0  0  0 
 10  7  1  0  0  0  0 
  8 11  2  0  0  0  0 
M  END
> <Name>
Glutaraldehyde, alpha,gamma-dimethyl-alpha-oxy-methyl-

> <Source>
Other

> <Tox>
1.890

> <CAS>
63951-48-4

$$$$

  CDK

 19 20  0  0  0  0  0  0  0  0999 V2000
   -0.3678    1.0153    0.0000 N   0  0  0  0  0  0  0  0  0  0  0  0
   -0.3678    1.8403    0.0000 C   0  0  0  0  0  0  0  0  0  0  0  0
   -1.0353    0.5304    0.0000 N   0  0  0  0  0  0  0  0  0  0  0  0
    0.2996    0.5304    0.0000 C   0  0  0  0  0  0  0  0  0  0  0  0
    0.3466    2.2528    0.0000 C   0  0  0  0  0  0  0  0  0  0  0  0
   -1.0823    2.2528    0.0000 C   0  0  0  0  0  0  0  0  0  0  0  0
   -0.7803   -0.2543    0.0000 N   0  0  0  0  0  0  0  0  0  0  0  0
    0.0447   -0.2543    0.0000 C   0  0  0  0  0  0  0  0  0  0  0  0
    1.0842    0.7853    0.0000 C   0  0  0  0  0  0  0  0  0  0  0  0
    0.3466    3.0778    0.0000 C   0  0  0  0  0  0  0  0  0  0  0  0
   -1.0823    3.0778    0.0000 C   0  0  0  0  0  0  0  0  0  0  0  0
    0.5296   -0.9217    0.0000 C   0  0  0  0  0  0  0  0  0  0  0  0
   -0.3678    3.4903    0.0000 C   0  0  0  0  0  0  0  0  0  0  0  0
    1.3501   -0.8355    0.0000 O   0  0  0  0  0  0  0  0  0  0  0  0
    0.1940   -1.6754    0.0000 N   0  0  0  0  0  0  0  0  0  0  0  0
   -0.6264   -1.7616    0.0000 C   0  0  0  0  0  0  0  0  0  0  0  0
    0.6790   -2.3428    0.0000 C   0  0  0  0  0  0  0  0  0  0  0  0
   -1.4469   -1.8478    0.0000 C   0  0  0  0  0  0  0  0  0  0  0  0
    1.1639   -3.0102    0.0000 C   0  0  0  0  0  0  0  0  0  0  0  0
  1  2  1  0  0  0  0 
  1  3  1  0  0  0  0 
  1  4  1  0  0  0  0 
  2  5  1  0  0  0  0 
  2  6  2  0  0  0  0 
  3  7  2  0  0  0  0 
  8  4  2  0  0  0  0 
  4  9  1  0  0  0  0 
  5 10  2  0  0  0  0 
 11  6  1  0  0  0  0 
  7  8  1  0  0  0  0 
  8 12  1  0  0  0  0 
 10 13  1  0  0  0  0 
 13 11  2  0  0  0  0 
 12 14  2  0  0  0  0 
 12 15  1  0  0  0  0 
 15 16  1  0  0  0  0 
 15 17  1  0  0  0  0 
 16 18  1  0  0  0  0 
 17 19  1  0  0  0  0 
M  END
> <Name>
1,2,3-Triazole-4-carboxamide, N,N-diethyl-5-methyl-1-phenyl-

> <Source>
Smiles

> <Tox>
2.713

> <CAS>
63979-27-1

$$$$

  CDK

 19 19  0  0  0  0  0  0  0  0999 V2000
   -1.1225    1.1288    0.0000 C   0  0  0  0  0  0  0  0  0  0  0  0
    0.2470    0.8377    0.0000 C   0  0  0  0  0  0  0  0  0  0  0  0
   -1.6919    2.4078    0.0000 O   0  0  0  0  0  0  0  0  0  0  0  0
   -1.8225   -0.0836    0.0000 O   0  0  0  0  0  0  0  0  0  0  0  0
    0.3933   -0.5546    0.0000 C   0  0  0  0  0  0  0  0  0  0  0  0
    0.4372    2.6478    0.0000 C   0  0  0  0  0  0  0  0  0  0  0  0
    1.6470    0.8377    0.0000 C   0  0  0  0  0  0  0  0  0  0  0  0
   -0.8857   -1.1240    0.0000 C   0  0  0  0  0  0  0  0  0  0  0  0
    1.6057   -1.2546    0.0000 C   0  0  0  0  0  0  0  0  0  0  0  0
   -1.0352    3.7175    0.0000 C   0  0  0  0  0  0  0  0  0  0  0  0
    2.3470    2.0502    0.0000 C   0  0  0  0  0  0  0  0  0  0  0  0
   -1.1767   -2.4934    0.0000 O   0  0  0  0  0  0  0  0  0  0  0  0
    1.6057   -2.6546    0.0000 C   0  0  0  0  0  0  0  0  0  0  0  0
   -2.6979    2.9773    0.0000 C   0  0  0  0  0  0  0  0  0  0  0  0
   -0.8889    5.1099    0.0000 C   0  0  0  0  0  0  0  0  0  0  0  0
    1.6470    3.2626    0.0000 C   0  0  0  0  0  0  0  0  0  0  0  0
    3.7470    2.0502    0.0000 C   0  0  0  0  0  0  0  0  0  0  0  0
    2.8182   -3.3546    0.0000 C   0  0  0  0  0  0  0  0  0  0  0  0
    0.3933   -3.3546    0.0000 C   0  0  0  0  0  0  0  0  0  0  0  0
  2  1  1  0  0  0  0 
  1  3  2  0  0  0  0 
  1  4  1  0  0  0  0 
  5  2  1  0  0  0  0 
  2  6  1  0  0  0  0 
  2  7  1  0  0  0  0 
  8  4  1  0  0  0  0 
  8  5  1  0  0  0  0 
  5  9  1  0  0  0  0 
 10  6  2  0  0  0  0 
 11  7  2  0  0  0  0 
  8 12  2  0  0  0  0 
 13  9  2  0  0  0  0 
 14 10  1  0  0  0  0 
 15 10  1  0  0  0  0 
 16 11  1  0  0  0  0 
 17 11  1  0  0  0  0 
 18 13  1  0  0  0  0 
 19 13  1  0  0  0  0 
M  END
> <Name>
Succinic anhydride, tri(isobutenyl)-

> <Source>
IndexNet2DMolFile

> <Tox>
2.446

> <CAS>
63979-83-9

$$$$

  CDK

 17 17  0  0  0  0  0  0  0  0999 V2000
    3.4636    1.0126   -0.0571 C   0  0  0  0  0  0  0  0  0  0  0  0
    4.7252    0.7513   -0.6098 C   0  0  0  0  0  0  0  0  0  0  0  0
    2.7421    0.0048    0.6081 C   0  0  0  0  0  0  0  0  0  0  0  0
    2.8857    2.2516   -0.1411 O   0  0  0  0  0  0  0  0  0  0  0  0
    5.2742   -0.5246   -0.5071 C   0  0  0  0  0  0  0  0  0  0  0  0
    3.3141   -1.2650    0.6941 C   0  0  0  0  0  0  0  0  0  0  0  0
    1.3978    0.2474    1.2149 C   0  0  0  0  0  0  0  0  0  0  0  0
    4.5614   -1.5319    0.1449 C   0  0  0  0  0  0  0  0  0  0  0  0
    6.6168   -0.8080   -1.0765 C   0  0  0  0  0  0  0  0  0  0  0  0
    0.2851   -0.0562    0.2199 C   0  0  0  0  0  0  0  0  0  0  0  0
   -1.0831    0.1653    0.8441 C   0  0  0  0  0  0  0  0  0  0  0  0
   -2.1970   -0.1423   -0.1435 C   0  0  0  0  0  0  0  0  0  0  0  0
   -3.5653    0.0819    0.4797 C   0  0  0  0  0  0  0  0  0  0  0  0
   -4.6799   -0.2298   -0.5057 C   0  0  0  0  0  0  0  0  0  0  0  0
   -6.0477   -0.0029    0.1173 C   0  0  0  0  0  0  0  0  0  0  0  0
   -7.1644   -0.3184   -0.8650 C   0  0  0  0  0  0  0  0  0  0  0  0
   -8.5257   -0.0910   -0.2474 C   0  0  0  0  0  0  0  0  0  0  0  0
  1  2  1  0  0  0  0 
  1  3  2  0  0  0  0 
  1  4  1  0  0  0  0 
  2  5  2  0  0  0  0 
  6  3  1  0  0  0  0 
  3  7  1  0  0  0  0 
  5  8  1  0  0  0  0 
  5  9  1  0  0  0  0 
  8  6  2  0  0  0  0 
  7 10  1  0  0  0  0 
 10 11  1  0  0  0  0 
 11 12  1  0  0  0  0 
 12 13  1  0  0  0  0 
 13 14  1  0  0  0  0 
 14 15  1  0  0  0  0 
 15 16  1  0  0  0  0 
 16 17  1  0  0  0  0 
M  END
> <Name>
m-Cresol, 6-nonyl-

> <Source>
DougDB3DMolFile

> <Tox>
1.768

> <CAS>
63992-49-4

$$$$

  CDK

 21 21  0  0  0  0  0  0  0  0999 V2000
    1.9692   -1.7815    0.0000 C   0  0  0  0  0  0  0  0  0  0  0  0
    1.1442   -1.7815    0.0000 O   0  0  0  0  0  0  0  0  0  0  0  0
    0.7317   -2.4959    0.0000 P   0  0  0  0  0  0  0  0  0  0  0  0
    0.3192   -3.2104    0.0000 O   0  0  0  0  0  0  0  0  0  0  0  0
    1.4462   -2.9084    0.0000 O   0  0  0  0  0  0  0  0  0  0  0  0
    0.0172   -2.0834    0.0000 O   0  0  0  0  0  0  0  0  0  0  0  0
    1.4462   -3.7334    0.0000 C   0  0  0  0  0  0  0  0  0  0  0  0
    0.0172   -1.2584    0.0000 C   0  0  0  0  0  0  0  0  0  0  0  0
    0.7317   -0.8459    0.0000 C   0  0  0  0  0  0  0  0  0  0  0  0
   -0.6972   -0.8459    0.0000 C   0  0  0  0  0  0  0  0  0  0  0  0
   -0.6972   -0.0209    0.0000 C   0  0  0  0  0  0  0  0  0  0  0  0
    0.0172    0.3916    0.0000 O   0  0  0  0  0  0  0  0  0  0  0  0
   -1.4117    0.3916    0.0000 O   0  0  0  0  0  0  0  0  0  0  0  0
   -1.4117    1.2166    0.0000 C   0  0  0  0  0  0  0  0  0  0  0  0
   -0.6972    1.6291    0.0000 C   0  0  0  0  0  0  0  0  0  0  0  0
   -2.1262    1.6291    0.0000 C   0  0  0  0  0  0  0  0  0  0  0  0
   -0.6972    2.4541    0.0000 C   0  0  0  0  0  0  0  0  0  0  0  0
   -2.1262    2.4541    0.0000 C   0  0  0  0  0  0  0  0  0  0  0  0
   -1.4117    2.8666    0.0000 C   0  0  0  0  0  0  0  0  0  0  0  0
   -1.4117    3.6916    0.0000 O   0  0  0  0  0  0  0  0  0  0  0  0
   -0.6972    4.1041    0.0000 C   0  0  0  0  0  0  0  0  0  0  0  0
  1  2  1  0  0  0  0 
  2  3  1  0  0  0  0 
  3  4  2  0  0  0  0 
  3  5  1  0  0  0  0 
  3  6  1  0  0  0  0 
  5  7  1  0  0  0  0 
  6  8  1  0  0  0  0 
  8  9  1  0  0  0  0 
  8 10  2  0  0  0  0 
 10 11  1  0  0  0  0 
 11 12  2  0  0  0  0 
 11 13  1  0  0  0  0 
 13 14  1  0  0  0  0 
 14 15  1  0  0  0  0 
 14 16  2  0  0  0  0 
 15 17  2  0  0  0  0 
 18 16  1  0  0  0  0 
 17 19  1  0  0  0  0 
 19 18  2  0  0  0  0 
 19 20  1  0  0  0  0 
 20 21  1  0  0  0  0 
M  END
> <Name>
Crotonic acid, 3-hydroxy-, p-methoxyphenyl ester, dimethyl phosphate

> <Source>
Smiles

> <Tox>
3.496

> <CAS>
64011-84-3

$$$$

  CDK

 20 20  0  0  0  0  0  0  0  0999 V2000
    2.0276   -1.6482    0.0000 C   0  0  0  0  0  0  0  0  0  0  0  0
    1.2026   -1.6482    0.0000 O   0  0  0  0  0  0  0  0  0  0  0  0
    0.7901   -2.3627    0.0000 P   0  0  0  0  0  0  0  0  0  0  0  0
    0.3776   -3.0772    0.0000 O   0  0  0  0  0  0  0  0  0  0  0  0
    1.5046   -2.7752    0.0000 O   0  0  0  0  0  0  0  0  0  0  0  0
    0.0756   -1.9502    0.0000 O   0  0  0  0  0  0  0  0  0  0  0  0
    1.5046   -3.6002    0.0000 C   0  0  0  0  0  0  0  0  0  0  0  0
    0.0756   -1.1252    0.0000 C   0  0  0  0  0  0  0  0  0  0  0  0
    0.7901   -0.7127    0.0000 C   0  0  0  0  0  0  0  0  0  0  0  0
   -0.6388   -0.7127    0.0000 C   0  0  0  0  0  0  0  0  0  0  0  0
   -0.6388    0.1123    0.0000 C   0  0  0  0  0  0  0  0  0  0  0  0
    0.0756    0.5248    0.0000 O   0  0  0  0  0  0  0  0  0  0  0  0
   -1.3533    0.5248    0.0000 O   0  0  0  0  0  0  0  0  0  0  0  0
   -1.3533    1.3498    0.0000 C   0  0  0  0  0  0  0  0  0  0  0  0
   -0.6388    1.7623    0.0000 C   0  0  0  0  0  0  0  0  0  0  0  0
   -2.0678    1.7623    0.0000 C   0  0  0  0  0  0  0  0  0  0  0  0
   -0.6388    2.5873    0.0000 C   0  0  0  0  0  0  0  0  0  0  0  0
   -2.0678    2.5873    0.0000 C   0  0  0  0  0  0  0  0  0  0  0  0
   -1.3533    2.9998    0.0000 C   0  0  0  0  0  0  0  0  0  0  0  0
   -1.3533    3.8248    0.0000 C   0  0  0  0  0  0  0  0  0  0  0  0
  1  2  1  0  0  0  0 
  2  3  1  0  0  0  0 
  3  4  2  0  0  0  0 
  3  5  1  0  0  0  0 
  3  6  1  0  0  0  0 
  5  7  1  0  0  0  0 
  6  8  1  0  0  0  0 
  8  9  1  0  0  0  0 
  8 10  2  0  0  0  0 
 10 11  1  0  0  0  0 
 11 12  2  0  0  0  0 
 11 13  1  0  0  0  0 
 13 14  1  0  0  0  0 
 14 15  1  0  0  0  0 
 14 16  2  0  0  0  0 
 15 17  2  0  0  0  0 
 18 16  1  0  0  0  0 
 17 19  1  0  0  0  0 
 19 18  2  0  0  0  0 
 19 20  1  0  0  0  0 
M  END
> <Name>
Crotonic acid, 3-hydroxy-, p-tolyl ester, dimethyl phosphate

> <Source>
Smiles

> <Tox>
3.232

> <CAS>
64011-88-7

$$$$

  CDK

 11 12  0  0  0  0  0  0  0  0999 V2000
   -0.0034    0.4125    0.0000 C   0  0  0  0  0  0  0  0  0  0  0  0
   -0.7881    0.6674    0.0000 N   0  0  0  0  0  0  0  0  0  0  0  0
   -0.0034   -0.4125    0.0000 C   0  0  0  0  0  0  0  0  0  0  0  0
    0.7110    0.8250    0.0000 C   0  0  0  0  0  0  0  0  0  0  0  0
   -1.2730   -0.0000    0.0000 C   0  0  0  0  0  0  0  0  0  0  0  0
   -0.7881   -0.6674    0.0000 O   0  0  0  0  0  0  0  0  0  0  0  0
    0.7110   -0.8250    0.0000 C   0  0  0  0  0  0  0  0  0  0  0  0
    1.4255    0.4125    0.0000 C   0  0  0  0  0  0  0  0  0  0  0  0
   -2.0980    0.0000    0.0000 N   0  0  0  0  0  0  0  0  0  0  0  0
    1.4255   -0.4125    0.0000 C   0  0  0  0  0  0  0  0  0  0  0  0
    2.1400    0.8250    0.0000 I   0  0  0  0  0  0  0  0  0  0  0  0
  1  2  1  0  0  0  0 
  1  3  1  0  0  0  0 
  1  4  2  0  0  0  0 
  2  5  2  0  0  0  0 
  6  3  1  0  0  0  0 
  3  7  2  0  0  0  0 
  8  4  1  0  0  0  0 
  5  9  1  0  0  0  0 
  5  6  1  0  0  0  0 
  7 10  1  0  0  0  0 
 10  8  2  0  0  0  0 
  8 11  1  0  0  0  0 
M  END
> <Name>
Benzoxazole, 2-amino-5-iodo-

> <Source>
Smiles

> <Tox>
2.415

> <CAS>
64037-13-4

$$$$

  CDK

 13 14  0  0  0  0  0  0  0  0999 V2000
    0.0000    0.0000    0.0000 C   0  0  0  0  0  0  0  0  0  0  0  0
   -0.9200   -1.0800    0.4000 N   0  0  0  0  0  0  0  0  0  0  0  0
   -0.3600   -2.4200    0.6200 C   0  0  0  0  0  0  0  0  0  0  0  0
   -2.3400   -0.8000    0.5600 C   0  0  0  0  0  0  0  0  0  0  0  0
   -3.2800   -1.7400    0.9200 N   0  0  0  0  0  0  0  0  0  0  0  0
   -2.9200    0.4200    0.3600 O   0  0  0  0  0  0  0  0  0  0  0  0
   -4.4600   -1.0800    0.9600 C   0  0  0  0  0  0  0  0  0  0  0  0
   -4.2200    0.2400    0.6200 C   0  0  0  0  0  0  0  0  0  0  0  0
   -5.7400   -1.5600    1.2800 C   0  0  0  0  0  0  0  0  0  0  0  0
   -5.2600    1.1800    0.5600 C   0  0  0  0  0  0  0  0  0  0  0  0
   -6.8000   -0.6400    1.2200 C   0  0  0  0  0  0  0  0  0  0  0  0
   -6.5600    0.7200    0.8600 C   0  0  0  0  0  0  0  0  0  0  0  0
   -8.4000   -1.1600    1.5800 Cl  0  0  0  0  0  0  0  0  0  0  0  0
  1  2  1  0  0  0  0 
  2  3  1  0  0  0  0 
  2  4  1  0  0  0  0 
  4  5  2  0  0  0  0 
  4  6  1  0  0  0  0 
  5  7  1  0  0  0  0 
  8  6  1  0  0  0  0 
  7  9  2  0  0  0  0 
  7  8  1  0  0  0  0 
 10  8  2  0  0  0  0 
  9 11  1  0  0  0  0 
 12 10  1  0  0  0  0 
 11 13  1  0  0  0  0 
 11 12  2  0  0  0  0 
M  END
> <Name>
Benzoxazole, 5-chloro-2-dimethylamino-

> <Source>
NIH3DMolFile

> <Tox>
2.391

> <CAS>
64037-20-3

$$$$

  CDK

 13 14  0  0  0  0  0  0  0  0999 V2000
    0.0000    0.0000    0.0000 Cl  0  0  0  0  0  0  0  0  0  0  0  0
   -0.1800   -1.7000    0.2800 C   0  0  0  0  0  0  0  0  0  0  0  0
   -1.4400   -2.3000    0.3800 C   0  0  0  0  0  0  0  0  0  0  0  0
    0.9400   -2.5800    0.4400 C   0  0  0  0  0  0  0  0  0  0  0  0
   -1.6400   -3.6400    0.6000 C   0  0  0  0  0  0  0  0  0  0  0  0
   -2.7600   -1.7000    0.2800 N   0  0  0  0  0  0  0  0  0  0  0  0
    0.7400   -3.9800    0.6600 C   0  0  0  0  0  0  0  0  0  0  0  0
    2.5600   -2.0200    0.3400 Cl  0  0  0  0  0  0  0  0  0  0  0  0
   -0.5600   -4.5200    0.7400 C   0  0  0  0  0  0  0  0  0  0  0  0
   -2.9400   -3.9800    0.6400 O   0  0  0  0  0  0  0  0  0  0  0  0
   -3.6000   -2.8200    0.4600 C   0  0  0  0  0  0  0  0  0  0  0  0
   -0.8200   -6.2000    1.0200 Cl  0  0  0  0  0  0  0  0  0  0  0  0
   -4.8200   -2.7200    0.4400 O   0  0  0  0  0  0  0  0  0  0  0  0
  1  2  1  0  0  0  0 
  2  3  2  0  0  0  0 
  2  4  1  0  0  0  0 
  3  5  1  0  0  0  0 
  3  6  1  0  0  0  0 
  7  4  2  0  0  0  0 
  4  8  1  0  0  0  0 
  5  9  2  0  0  0  0 
  5 10  1  0  0  0  0 
 11  6  1  0  0  0  0 
  9  7  1  0  0  0  0 
  9 12  1  0  0  0  0 
 10 11  1  0  0  0  0 
 11 13  2  0  0  0  0 
M  END
> <Name>
2-Benzoxazolinone, 4,5,7-trichloro-

> <Source>
NIH3DMolFile

> <Tox>
2.678

> <CAS>
64037-31-6

$$$$

  CDK

  6  5  0  0  0  0  0  0  0  0999 V2000
   -1.8980   -0.1674    0.5697 C   0  0  0  0  0  0  0  0  0  0  0  0
   -0.8482   -0.5228   -0.1752 C   0  0  0  0  0  0  0  0  0  0  0  0
   -3.3298    0.3321   -0.1536 Cl  0  0  0  0  0  0  0  0  0  0  0  0
    0.4301   -0.9487    0.4155 C   0  0  0  0  0  0  0  0  0  0  0  0
    1.0603   -2.1335   -0.2468 C   0  0  0  0  0  0  0  0  0  0  0  0
    1.6495    0.5337   -0.0248 Br  0  0  0  0  0  0  0  0  0  0  0  0
  1  2  2  0  0  0  0 
  1  3  1  0  0  0  0 
  2  4  1  0  0  0  0 
  4  5  1  0  0  0  0 
  4  6  1  0  0  0  0 
M  END
> <Name>
1-Butene, 3-bromo-1-chloro-

> <Source>
DougDB3DMolFile

> <Tox>
3.360

> <CAS>
64037-53-2

$$$$

  CDK

 17 17  0  0  0  0  0  0  0  0999 V2000
   -6.8425   -4.5495   -0.8193 Cl  0  0  0  0  0  0  0  0  0  0  0  0
   -6.5104   -2.8192   -0.3991 C   0  0  0  0  0  0  0  0  0  0  0  0
   -7.9179   -2.2573    0.5535 Cl  0  0  0  0  0  0  0  0  0  0  0  0
   -6.4121   -2.1269   -1.6304 O   0  0  0  0  0  0  0  0  0  0  0  0
   -5.2696   -2.8963    0.4872 C   0  0  0  0  0  0  0  0  0  0  0  0
   -6.0789   -0.8027   -1.6917 C   0  0  0  0  0  0  0  0  0  0  0  0
   -4.1377   -2.9159   -0.2877 O   0  0  0  0  0  0  0  0  0  0  0  0
   -5.2838   -2.9651    1.7099 O   0  0  0  0  0  0  0  0  0  0  0  0
   -5.8253   -0.0981   -0.5182 C   0  0  0  0  0  0  0  0  0  0  0  0
   -5.9962   -0.1668   -2.9271 C   0  0  0  0  0  0  0  0  0  0  0  0
   -2.9062   -3.0249    0.4126 C   0  0  0  0  0  0  0  0  0  0  0  0
   -5.4862    1.2535   -0.5807 C   0  0  0  0  0  0  0  0  0  0  0  0
   -5.6570    1.1848   -2.9897 C   0  0  0  0  0  0  0  0  0  0  0  0
   -1.7660   -3.0317   -0.5956 C   0  0  0  0  0  0  0  0  0  0  0  0
   -5.4021    1.8949   -1.8164 C   0  0  0  0  0  0  0  0  0  0  0  0
   -1.7334   -1.7466   -1.4181 C   0  0  0  0  0  0  0  0  0  0  0  0
   -0.5675   -1.7390   -2.3938 C   0  0  0  0  0  0  0  0  0  0  0  0
  1  2  1  0  0  0  0 
  3  2  1  0  0  0  0 
  4  2  1  0  0  0  0 
  2  5  1  0  0  0  0 
  4  6  1  0  0  0  0 
  7  5  1  0  0  0  0 
  8  5  2  0  0  0  0 
  6  9  2  0  0  0  0 
  6 10  1  0  0  0  0 
  7 11  1  0  0  0  0 
  9 12  1  0  0  0  0 
 10 13  2  0  0  0  0 
 14 11  1  0  0  0  0 
 12 15  2  0  0  0  0 
 13 15  1  0  0  0  0 
 14 16  1  0  0  0  0 
 16 17  1  0  0  0  0 
M  END
> <Name>
Acetic acid, dichlorophenoxy-, butyl ester

> <Source>
Chemidplus3DMolFile

> <Tox>
2.267

> <CAS>
64047-35-4

$$$$

  CDK

 28 30  0  0  0  0  0  0  0  0999 V2000
   -0.0970    1.9723    0.2128 C   0  0  0  0  0  0  0  0  0  0  0  0
    0.0021   -0.0041    0.0020 As  0  0  0  0  0  0  0  0  0  0  0  0
    1.3182    2.5520    0.2570 C   0  0  0  0  0  0  0  0  0  0  0  0
   -0.8579    2.5738   -0.9704 C   0  0  0  0  0  0  0  0  0  0  0  0
   -1.8162   -0.7854    0.2110 C   0  0  0  0  0  0  0  0  0  0  0  0
    0.7092   -0.4437   -1.8054 C   0  0  0  0  0  0  0  0  0  0  0  0
    1.2420    4.0715    0.4190 C   0  0  0  0  0  0  0  0  0  0  0  0
   -0.9341    4.0933   -0.8083 C   0  0  0  0  0  0  0  0  0  0  0  0
   -1.7050   -2.3046    0.3546 C   0  0  0  0  0  0  0  0  0  0  0  0
   -2.4814   -0.2024    1.4594 C   0  0  0  0  0  0  0  0  0  0  0  0
    2.1783   -0.0256   -1.8938 C   0  0  0  0  0  0  0  0  0  0  0  0
    0.5923   -1.9501   -2.0462 C   0  0  0  0  0  0  0  0  0  0  0  0
    0.4811    4.6731   -0.7642 C   0  0  0  0  0  0  0  0  0  0  0  0
    0.5116    4.4096    1.7202 C   0  0  0  0  0  0  0  0  0  0  0  0
    2.6573    4.6513    0.4632 C   0  0  0  0  0  0  0  0  0  0  0  0
   -1.6950    4.6949   -1.9916 C   0  0  0  0  0  0  0  0  0  0  0  0
   -3.1030   -2.9053    0.5153 C   0  0  0  0  0  0  0  0  0  0  0  0
   -3.8793   -0.8031    1.6200 C   0  0  0  0  0  0  0  0  0  0  0  0
    2.7220   -0.3636   -3.2834 C   0  0  0  0  0  0  0  0  0  0  0  0
    1.1360   -2.2881   -3.4358 C   0  0  0  0  0  0  0  0  0  0  0  0
   -3.7682   -2.3223    1.7637 C   0  0  0  0  0  0  0  0  0  0  0  0
   -3.9468   -2.5698   -0.7161 C   0  0  0  0  0  0  0  0  0  0  0  0
   -2.9918   -4.4245    0.6589 C   0  0  0  0  0  0  0  0  0  0  0  0
   -4.5445   -0.2201    2.8684 C   0  0  0  0  0  0  0  0  0  0  0  0
    2.6051   -1.8700   -3.5243 C   0  0  0  0  0  0  0  0  0  0  0  0
    1.9135    0.3866   -4.3438 C   0  0  0  0  0  0  0  0  0  0  0  0
    4.1911    0.0545   -3.3719 C   0  0  0  0  0  0  0  0  0  0  0  0
    1.0191   -3.7945   -3.6767 C   0  0  0  0  0  0  0  0  0  0  0  0
  1  2  1  0  0  0  0 
  1  3  1  0  0  0  0 
  1  4  1  0  0  0  0 
  2  5  1  0  0  0  0 
  2  6  1  0  0  0  0 
  3  7  1  0  0  0  0 
  4  8  1  0  0  0  0 
  5  9  1  0  0  0  0 
  5 10  1  0  0  0  0 
  6 11  1  0  0  0  0 
  6 12  1  0  0  0  0 
  7 13  1  0  0  0  0 
  7 14  1  0  0  0  0 
  7 15  1  0  0  0  0 
  8 16  1  0  0  0  0 
  8 13  1  0  0  0  0 
  9 17  1  0  0  0  0 
 10 18  1  0  0  0  0 
 11 19  1  0  0  0  0 
 12 20  1  0  0  0  0 
 17 21  1  0  0  0  0 
 17 22  1  0  0  0  0 
 17 23  1  0  0  0  0 
 18 24  1  0  0  0  0 
 18 21  1  0  0  0  0 
 19 25  1  0  0  0  0 
 19 26  1  0  0  0  0 
 19 27  1  0  0  0  0 
 20 28  1  0  0  0  0 
 20 25  1  0  0  0  0 
M  END
> <Name>
Arsine, tris(3,3,5-trimethylcyclohexyl)-

> <Source>
Chemidplus3DMolFile

> <Tox>
2.841

> <CAS>
64048-98-2

$$$$

  CDK

 11 10  0  0  0  0  0  0  0  0999 V2000
   -2.8205    0.1481    0.0008 C   0  0  0  0  0  0  0  0  0  0  0  0
   -3.8653   -0.9017    0.0023 C   0  0  0  0  0  0  0  0  0  0  0  0
   -2.9649    1.3568   -0.0022 O   0  0  0  0  0  0  0  0  0  0  0  0
   -1.5598   -0.3764    0.0033 O   0  0  0  0  0  0  0  0  0  0  0  0
   -5.1599   -0.5980   -0.0064 C   0  0  0  0  0  0  0  0  0  0  0  0
   -0.4517    0.5237    0.0032 C   0  0  0  0  0  0  0  0  0  0  0  0
    0.8037   -0.3438    0.0027 C   0  0  0  0  0  0  0  0  0  0  0  0
    2.0374    0.5550    0.0028 C   0  0  0  0  0  0  0  0  0  0  0  0
    3.1692   -0.3007   -0.0005 O   0  0  0  0  0  0  0  0  0  0  0  0
    4.4018    0.4045   -0.0019 C   0  0  0  0  0  0  0  0  0  0  0  0
    5.5090   -0.6323   -0.0038 C   0  0  0  0  0  0  0  0  0  0  0  0
  1  2  1  0  0  0  0 
  1  3  2  0  0  0  0 
  1  4  1  0  0  0  0 
  2  5  2  0  0  0  0 
  4  6  1  0  0  0  0 
  6  7  1  0  0  0  0 
  7  8  1  0  0  0  0 
  8  9  1  0  0  0  0 
  9 10  1  0  0  0  0 
 10 11  1  0  0  0  0 
M  END
> <Name>
Acrylic acid, ethoxypropyl ester

> <Source>
DougDB3DMolFile

> <Tox>
2.285

> <CAS>
64050-15-3

$$$$

  CDK

 21 22  0  0  0  0  0  0  0  0999 V2000
    4.6768   -1.6238   -1.0258 C   0  0  0  0  0  0  0  0  0  0  0  0
    5.4562   -0.4516   -0.8881 C   0  0  0  0  0  0  0  0  0  0  0  0
    3.3300   -1.6368   -0.6131 C   0  0  0  0  0  0  0  0  0  0  0  0
    4.9060    0.7001   -0.2801 C   0  0  0  0  0  0  0  0  0  0  0  0
    7.0426   -0.4237   -1.4760 Cl  0  0  0  0  0  0  0  0  0  0  0  0
    2.7606   -0.4468   -0.1166 C   0  0  0  0  0  0  0  0  0  0  0  0
    3.5557    0.6740    0.1044 C   0  0  0  0  0  0  0  0  0  0  0  0
    1.4847   -0.1005    0.1510 N   0  0  0  0  0  0  0  0  0  0  0  0
    2.7955    1.6449    0.6516 O   0  0  0  0  0  0  0  0  0  0  0  0
    1.5366    1.1420    0.6877 C   0  0  0  0  0  0  0  0  0  0  0  0
    0.2947   -0.8380   -0.1994 C   0  0  0  0  0  0  0  0  0  0  0  0
    0.5592    1.7961    1.1204 O   0  0  0  0  0  0  0  0  0  0  0  0
   -0.2291   -0.4949   -1.3978 O   0  0  0  0  0  0  0  0  0  0  0  0
    0.4003   -0.4556   -2.7898 P   0  0  0  0  0  0  0  0  0  0  0  0
    1.7323   -1.0902   -2.8058 O   0  0  0  0  0  0  0  0  0  0  0  0
    0.5442    0.9943   -3.2375 O   0  0  0  0  0  0  0  0  0  0  0  0
   -0.4837   -1.1992   -3.7865 O   0  0  0  0  0  0  0  0  0  0  0  0
    1.2728    1.9382   -2.6234 C   0  0  0  0  0  0  0  0  0  0  0  0
   -0.0635   -1.6597   -4.9806 C   0  0  0  0  0  0  0  0  0  0  0  0
    1.5297    3.1401   -3.5476 C   0  0  0  0  0  0  0  0  0  0  0  0
   -1.1381   -2.5175   -5.6714 C   0  0  0  0  0  0  0  0  0  0  0  0
  1  2  2  0  0  0  0 
  3  1  1  0  0  0  0 
  2  4  1  0  0  0  0 
  2  5  1  0  0  0  0 
  6  3  2  0  0  0  0 
  4  7  2  0  0  0  0 
  7  6  1  0  0  0  0 
  8  6  1  0  0  0  0 
  7  9  1  0  0  0  0 
 10  8  1  0  0  0  0 
  8 11  1  0  0  0  0 
  9 10  1  0  0  0  0 
 10 12  2  0  0  0  0 
 11 13  1  0  0  0  0 
 13 14  1  0  0  0  0 
 14 15  2  0  0  0  0 
 14 16  1  0  0  0  0 
 14 17  1  0  0  0  0 
 16 18  1  0  0  0  0 
 17 19  1  0  0  0  0 
 18 20  1  0  0  0  0 
 19 21  1  0  0  0  0 
M  END
> <Name>
Phosphoric acid, diethyl ester, ester with 6-chloro-3-(hydroxymethyl)-2-benzoxazolinone

> <Source>
Other

> <Tox>
3.982

> <CAS>
64050-52-8

$$$$

  CDK

 16 16  0  0  0  0  0  0  0  0999 V2000
   -1.2669   -1.2472    0.0000 Cl  0  0  0  0  0  0  0  0  0  0  0  0
   -1.2669   -0.4222    0.0000 C   0  0  0  0  0  0  0  0  0  0  0  0
   -0.5524   -0.0097    0.0000 C   0  0  0  0  0  0  0  0  0  0  0  0
   -1.9814   -0.0097    0.0000 C   0  0  0  0  0  0  0  0  0  0  0  0
   -0.5524    0.8153    0.0000 C   0  0  0  0  0  0  0  0  0  0  0  0
   -1.9814    0.8153    0.0000 C   0  0  0  0  0  0  0  0  0  0  0  0
    0.1621    1.2278    0.0000 S   0  0  0  0  0  0  0  0  0  0  0  0
   -1.2669    1.2278    0.0000 C   0  0  0  0  0  0  0  0  0  0  0  0
    0.8765    0.8153    0.0000 C   0  0  0  0  0  0  0  0  0  0  0  0
    1.5910    0.4028    0.0000 S   0  0  0  0  0  0  0  0  0  0  0  0
    1.5910   -0.4222    0.0000 P   0  0  0  0  0  0  0  0  0  0  0  0
    2.4160   -0.4222    0.0000 S   0  0  0  0  0  0  0  0  0  0  0  0
    0.7660   -0.4222    0.0000 O   0  0  0  0  0  0  0  0  0  0  0  0
    1.5910   -1.2472    0.0000 O   0  0  0  0  0  0  0  0  0  0  0  0
    0.3535    0.2922    0.0000 C   0  0  0  0  0  0  0  0  0  0  0  0
    0.8765   -1.6597    0.0000 C   0  0  0  0  0  0  0  0  0  0  0  0
  1  2  1  0  0  0  0 
  2  3  1  0  0  0  0 
  2  4  2  0  0  0  0 
  3  5  2  0  0  0  0 
  6  4  1  0  0  0  0 
  5  7  1  0  0  0  0 
  5  8  1  0  0  0  0 
  8  6  2  0  0  0  0 
  7  9  1  0  0  0  0 
  9 10  1  0  0  0  0 
 10 11  1  0  0  0  0 
 11 12  2  0  0  0  0 
 11 13  1  0  0  0  0 
 11 14  1  0  0  0  0 
 13 15  1  0  0  0  0 
 14 16  1  0  0  0  0 
M  END
> <Name>
Phosphorodithioic acid, S-(((m-chlorophenyl)thio)methyl) O,O-dimethyl ester

> <Source>
Smiles

> <Tox>
3.623

> <CAS>
64050-56-2

$$$$

  CDK

 17 17  0  0  0  0  0  0  0  0999 V2000
    0.2279   -3.0522    0.0000 Cl  0  0  0  0  0  0  0  0  0  0  0  0
    0.2398   -2.2379    0.0000 C   0  0  0  0  0  0  0  0  0  0  0  0
    0.9684   -1.8399    0.0000 C   0  0  0  0  0  0  0  0  0  0  0  0
   -0.4660   -1.7954    0.0000 C   0  0  0  0  0  0  0  0  0  0  0  0
    0.9892   -1.0197    0.0000 C   0  0  0  0  0  0  0  0  0  0  0  0
   -0.4541   -0.9737    0.0000 C   0  0  0  0  0  0  0  0  0  0  0  0
    1.6790   -0.5384    0.0000 Cl  0  0  0  0  0  0  0  0  0  0  0  0
    0.3047   -0.5937    0.0000 C   0  0  0  0  0  0  0  0  0  0  0  0
   -1.2315   -0.5590    0.0000 S   0  0  0  0  0  0  0  0  0  0  0  0
   -1.3905    0.3059    0.0000 C   0  0  0  0  0  0  0  0  0  0  0  0
   -1.3470    1.1828    0.0000 S   0  0  0  0  0  0  0  0  0  0  0  0
   -0.6746    1.7523    0.0000 P   0  0  0  0  0  0  0  0  0  0  0  0
   -1.0136    2.5079    0.0000 S   0  0  0  0  0  0  0  0  0  0  0  0
   -0.1313    1.1270    0.0000 O   0  0  0  0  0  0  0  0  0  0  0  0
    0.1691    1.8963    0.0000 O   0  0  0  0  0  0  0  0  0  0  0  0
   -0.5851    0.4360    0.0000 C   0  0  0  0  0  0  0  0  0  0  0  0
    0.9962    1.7137    0.0000 C   0  0  0  0  0  0  0  0  0  0  0  0
  1  2  1  0  0  0  0 
  2  3  1  0  0  0  0 
  2  4  2  0  0  0  0 
  3  5  2  0  0  0  0 
  6  4  1  0  0  0  0 
  5  7  1  0  0  0  0 
  5  8  1  0  0  0  0 
  8  6  2  0  0  0  0 
  6  9  1  0  0  0  0 
  9 10  1  0  0  0  0 
 10 11  1  0  0  0  0 
 11 12  1  0  0  0  0 
 12 13  2  0  0  0  0 
 12 14  1  0  0  0  0 
 12 15  1  0  0  0  0 
 14 16  1  0  0  0  0 
 15 17  1  0  0  0  0 
M  END
> <Name>
Phosphorodithioic acid, S-(((3,5-dichlorophenyl)thio)methyl) O,O-dimethyl ester

> <Source>
Smiles

> <Tox>
2.897

> <CAS>
64050-59-5

$$$$

  CDK

 22 22  0  0  0  0  0  0  0  0999 V2000
    2.1806    0.0087    0.0000 Cl  0  0  0  0  0  0  0  0  0  0  0  0
    1.9977   -0.7958    0.0000 C   0  0  0  0  0  0  0  0  0  0  0  0
    1.1932   -0.6129    0.0000 C   0  0  0  0  0  0  0  0  0  0  0  0
    0.3888   -0.4299    0.0000 O   0  0  0  0  0  0  0  0  0  0  0  0
   -0.1719   -1.0351    0.0000 P   0  0  0  0  0  0  0  0  0  0  0  0
   -0.3548   -1.8396    0.0000 O   0  0  0  0  0  0  0  0  0  0  0  0
    0.6326   -1.2181    0.0000 O   0  0  0  0  0  0  0  0  0  0  0  0
   -0.9764   -0.8522    0.0000 O   0  0  0  0  0  0  0  0  0  0  0  0
    0.8764   -2.0062    0.0000 C   0  0  0  0  0  0  0  0  0  0  0  0
   -1.2202   -0.0641    0.0000 C   0  0  0  0  0  0  0  0  0  0  0  0
    1.1202   -2.7944    0.0000 C   0  0  0  0  0  0  0  0  0  0  0  0
   -0.5057    0.3484    0.0000 C   0  0  0  0  0  0  0  0  0  0  0  0
   -1.9346    0.3484    0.0000 C   0  0  0  0  0  0  0  0  0  0  0  0
    1.9083   -2.5506    0.0000 Cl  0  0  0  0  0  0  0  0  0  0  0  0
   -0.5057    1.1734    0.0000 C   0  0  0  0  0  0  0  0  0  0  0  0
   -1.9346    1.1734    0.0000 C   0  0  0  0  0  0  0  0  0  0  0  0
   -2.4953   -0.2568    0.0000 Cl  0  0  0  0  0  0  0  0  0  0  0  0
   -1.2202    1.5859    0.0000 C   0  0  0  0  0  0  0  0  0  0  0  0
    0.0550    1.7787    0.0000 C   0  0  0  0  0  0  0  0  0  0  0  0
   -0.5502    2.3393    0.0000 Br  0  0  0  0  0  0  0  0  0  0  0  0
    0.6156    2.3839    0.0000 C   0  0  0  0  0  0  0  0  0  0  0  0
    0.0104    2.9445    0.0000 Br  0  0  0  0  0  0  0  0  0  0  0  0
  1  2  1  0  0  0  0 
  2  3  1  0  0  0  0 
  3  4  1  0  0  0  0 
  4  5  1  0  0  0  0 
  5  6  2  0  0  0  0 
  5  7  1  0  0  0  0 
  5  8  1  0  0  0  0 
  7  9  1  0  0  0  0 
  8 10  1  0  0  0  0 
  9 11  1  0  0  0  0 
 10 12  1  0  0  0  0 
 10 13  1  0  0  0  0 
 11 14  1  0  0  0  0 
 12 15  1  0  0  0  0 
 16 13  1  0  0  0  0 
 13 17  1  0  0  0  0 
 15 18  1  0  0  0  0 
 15 19  1  0  0  0  0 
 18 16  1  0  0  0  0 
 19 20  1  0  0  0  0 
 19 21  1  0  0  0  0 
 21 22  1  0  0  0  0 
M  END
> <Name>
Phosphoric acid, 2-chloro-5-(1,2-dibromoethyl)cyclohexyl bis(2-chloroethyl) ester

> <Source>
Smiles

> <Tox>
2.126

> <CAS>
64050-74-4

$$$$

  CDK

 11 10  0  0  0  0  0  0  0  0999 V2000
   -6.3036   -3.4934   -1.7275 Cl  0  0  0  0  0  0  0  0  0  0  0  0
   -5.5232   -2.0811   -2.4970 C   0  0  0  0  0  0  0  0  0  0  0  0
   -4.1911   -2.6335   -3.5484 Cl  0  0  0  0  0  0  0  0  0  0  0  0
   -6.7560   -1.2993   -3.5543 Cl  0  0  0  0  0  0  0  0  0  0  0  0
   -4.9892   -0.8543   -1.2588 S   0  0  0  0  0  0  0  0  0  0  0  0
   -3.8524   -1.7423   -0.2480 C   0  0  0  0  0  0  0  0  0  0  0  0
   -2.1663   -1.5961   -0.7506 S   0  0  0  0  0  0  0  0  0  0  0  0
   -4.2964   -2.5999    1.1220 S   0  0  0  0  0  0  0  0  0  0  0  0
   -1.7140   -0.0907    0.1432 C   0  0  0  0  0  0  0  0  0  0  0  0
   -0.2853    0.2583   -0.1248 C   0  0  0  0  0  0  0  0  0  0  0  0
    0.1103    1.4144   -0.6698 C   0  0  0  0  0  0  0  0  0  0  0  0
  1  2  1  0  0  0  0 
  3  2  1  0  0  0  0 
  4  2  1  0  0  0  0 
  5  2  1  0  0  0  0 
  5  6  1  0  0  0  0 
  7  6  1  0  0  0  0 
  8  6  2  0  0  0  0 
  7  9  1  0  0  0  0 
  9 10  1  0  0  0  0 
 10 11  2  0  0  0  0 
M  END
> <Name>
Carbonotrithioic acid, 2-propenyltrichloromethyl ester

> <Source>
Chemidplus3DMolFile

> <Tox>
2.089

> <CAS>
64057-58-5

$$$$

  CDK

 17 18  0  0  0  0  0  0  0  0999 V2000
    4.8497    6.3000    0.0000 C   0  0  0  0  0  0  0  0  0  0  0  0
    4.8497    4.9000    0.0000 C   0  0  0  0  0  0  0  0  0  0  0  0
    3.6373    7.0000    0.0000 O   0  0  0  0  0  0  0  0  0  0  0  0
    6.0622    7.0000    0.0000 O   0  0  0  0  0  0  0  0  0  0  0  0
    3.6373    4.2000    0.0000 S   0  0  0  0  0  0  0  0  0  0  0  0
    3.6373    2.8000    0.0000 C   0  0  0  0  0  0  0  0  0  0  0  0
    4.8497    2.1000    0.0000 C   0  0  0  0  0  0  0  0  0  0  0  0
    2.4249    2.1000    0.0000 C   0  0  0  0  0  0  0  0  0  0  0  0
    4.8497    0.7000    0.0000 C   0  0  0  0  0  0  0  0  0  0  0  0
    1.2124    2.8000    0.0000 C   0  0  0  0  0  0  0  0  0  0  0  0
    2.4249    0.7000    0.0000 C   0  0  0  0  0  0  0  0  0  0  0  0
    3.6373    0.0000    0.0000 C   0  0  0  0  0  0  0  0  0  0  0  0
    0.0000    2.1000    0.0000 C   0  0  0  0  0  0  0  0  0  0  0  0
    1.2124    4.2000    0.0000 C   0  0  0  0  0  0  0  0  0  0  0  0
    1.2124    0.0000    0.0000 C   0  0  0  0  0  0  0  0  0  0  0  0
    0.0000    0.7000    0.0000 C   0  0  0  0  0  0  0  0  0  0  0  0
    0.0000    4.9000    0.0000 Cl  0  0  0  0  0  0  0  0  0  0  0  0
  1  2  1  0  0  0  0 
  1  3  2  0  0  0  0 
  1  4  1  0  0  0  0 
  2  5  1  0  0  0  0 
  5  6  1  0  0  0  0 
  6  7  1  0  0  0  0 
  6  8  2  0  0  0  0 
  7  9  2  0  0  0  0 
 10  8  1  0  0  0  0 
 11  8  1  0  0  0  0 
  9 12  1  0  0  0  0 
 13 10  2  0  0  0  0 
 10 14  1  0  0  0  0 
 12 11  2  0  0  0  0 
 11 15  1  0  0  0  0 
 16 13  1  0  0  0  0 
 14 17  1  0  0  0  0 
 15 16  2  0  0  0  0 
M  END
> <Name>
Acetic acid, 2-(8-chloromethyl-1-naphthylthio)-

> <Source>
Name2DMolFile

> <Tox>
2.028

> <CAS>
64059-42-3

$$$$

  CDK

 19 19  0  0  0  0  0  0  0  0999 V2000
    2.5255    0.8038    2.6373 Cl  0  0  0  0  0  0  0  0  0  0  0  0
    1.8047    0.3214    1.1476 C   0  0  0  0  0  0  0  0  0  0  0  0
    0.4856    0.3650    0.9514 C   0  0  0  0  0  0  0  0  0  0  0  0
    2.7126   -0.1542    0.0682 C   0  0  0  0  0  0  0  0  0  0  0  0
   -0.4060    0.7839    1.8813 O   0  0  0  0  0  0  0  0  0  0  0  0
    0.0163   -0.0762   -0.3644 C   0  0  0  0  0  0  0  0  0  0  0  0
    3.9282   -0.1911    0.2613 O   0  0  0  0  0  0  0  0  0  0  0  0
    2.1031   -0.5374   -1.1234 N   0  0  0  0  0  0  0  0  0  0  0  0
   -1.9343    0.2398    1.9925 P   0  0  0  0  0  0  0  0  0  0  0  0
    0.7530   -0.4968   -1.3353 N   0  0  0  0  0  0  0  0  0  0  0  0
    2.9519   -1.0083   -2.2056 C   0  0  0  0  0  0  0  0  0  0  0  0
   -2.1618   -1.6941    2.0617 S   0  0  0  0  0  0  0  0  0  0  0  0
   -2.6429    1.0149    0.7495 O   0  0  0  0  0  0  0  0  0  0  0  0
   -2.4897    1.0896    3.2635 O   0  0  0  0  0  0  0  0  0  0  0  0
   -4.0212    0.8115    0.4877 C   0  0  0  0  0  0  0  0  0  0  0  0
   -1.8595    0.9596    4.5267 C   0  0  0  0  0  0  0  0  0  0  0  0
   -4.8298    1.2356    1.7042 C   0  0  0  0  0  0  0  0  0  0  0  0
   -4.4155    1.5938   -0.7558 C   0  0  0  0  0  0  0  0  0  0  0  0
   -2.5673    1.8508    5.5249 C   0  0  0  0  0  0  0  0  0  0  0  0
  1  2  1  0  0  0  0 
  3  2  2  0  0  0  0 
  2  4  1  0  0  0  0 
  5  3  1  0  0  0  0 
  3  6  1  0  0  0  0 
  7  4  2  0  0  0  0 
  8  4  1  0  0  0  0 
  9  5  1  0  0  0  0 
 10  6  2  0  0  0  0 
  8 10  1  0  0  0  0 
  8 11  1  0  0  0  0 
 12  9  2  0  0  0  0 
  9 13  1  0  0  0  0 
  9 14  1  0  0  0  0 
 13 15  1  0  0  0  0 
 14 16  1  0  0  0  0 
 15 17  1  0  0  0  0 
 15 18  1  0  0  0  0 
 16 19  1  0  0  0  0 
M  END
> <Name>
Phosphorothioic acid, O-(5-chloro-1,6-dihydro-1-methyl-6-oxo-4-pyridazinyl) O-ethyl O-(1-methylethyl) ester

> <Source>
Chemidplus3DMolFile

> <Tox>
3.461

> <CAS>
64153-64-6

$$$$

  CDK

 21 21  0  0  0  0  0  0  0  0999 V2000
    9.6622    0.0000    0.0000 C   0  0  0  0  0  0  0  0  0  0  0  0
    8.9959    1.2078    0.0000 O   0  0  0  0  0  0  0  0  0  0  0  0
    9.6622    2.4156    0.0000 P   0  0  0  0  0  0  0  0  0  0  0  0
   10.3702    3.6233    0.0000 S   0  0  0  0  0  0  0  0  0  0  0  0
   10.8700    1.7492    0.0000 O   0  0  0  0  0  0  0  0  0  0  0  0
    8.4544    3.1236    0.0000 S   0  0  0  0  0  0  0  0  0  0  0  0
   10.8700    0.3332    0.0000 C   0  0  0  0  0  0  0  0  0  0  0  0
    7.2467    2.4156    0.0000 C   0  0  0  0  0  0  0  0  0  0  0  0
    6.0389    3.1236    0.0000 C   0  0  0  0  0  0  0  0  0  0  0  0
    6.0389    4.5396    0.0000 O   0  0  0  0  0  0  0  0  0  0  0  0
    4.8311    2.4156    0.0000 N   0  0  0  0  0  0  0  0  0  0  0  0
    4.8311    1.0412    0.0000 C   0  0  0  0  0  0  0  0  0  0  0  0
    3.6233    3.1236    0.0000 C   0  0  0  0  0  0  0  0  0  0  0  0
    6.0389    0.3332    0.0000 C   0  0  0  0  0  0  0  0  0  0  0  0
    3.6233    0.3332    0.0000 C   0  0  0  0  0  0  0  0  0  0  0  0
    2.4156    2.4156    0.0000 C   0  0  0  0  0  0  0  0  0  0  0  0
    3.6233    4.5396    0.0000 C   0  0  0  0  0  0  0  0  0  0  0  0
    1.2078    3.1236    0.0000 C   0  0  0  0  0  0  0  0  0  0  0  0
    2.4156    5.2059    0.0000 C   0  0  0  0  0  0  0  0  0  0  0  0
    1.2078    4.5396    0.0000 C   0  0  0  0  0  0  0  0  0  0  0  0
    0.0000    5.2059    0.0000 Cl  0  0  0  0  0  0  0  0  0  0  0  0
  1  2  1  0  0  0  0 
  2  3  1  0  0  0  0 
  3  4  2  0  0  0  0 
  3  5  1  0  0  0  0 
  3  6  1  0  0  0  0 
  5  7  1  0  0  0  0 
  6  8  1  0  0  0  0 
  8  9  1  0  0  0  0 
  9 10  2  0  0  0  0 
  9 11  1  0  0  0  0 
 11 12  1  0  0  0  0 
 11 13  1  0  0  0  0 
 12 14  1  0  0  0  0 
 12 15  1  0  0  0  0 
 13 16  2  0  0  0  0 
 13 17  1  0  0  0  0 
 16 18  1  0  0  0  0 
 19 17  2  0  0  0  0 
 18 20  2  0  0  0  0 
 20 19  1  0  0  0  0 
 20 21  1  0  0  0  0 
M  END
> <Name>
Phosphorodithioic acid, S-(2-((4-chlorophenyl)(1-methylethyl)amino)-2-oxoethyl)-, O,O-dimethyl ester

> <Source>
IndexNet2DMolFile

> <Tox>
2.892

> <CAS>
64249-01-0

$$$$

  CDK

 19 19  0  0  0  0  0  0  0  0999 V2000
    1.4380   -2.5284   -2.3242 S   0  0  0  0  0  0  0  0  0  0  0  0
    2.5773   -3.0256   -3.0726 O   0  0  0  0  0  0  0  0  0  0  0  0
    0.7150   -3.3986   -1.4180 O   0  0  0  0  0  0  0  0  0  0  0  0
    1.9019   -1.0690   -1.5408 N   0  0  0  0  0  0  0  0  0  0  0  0
    0.2772   -1.8929   -3.5130 C   0  0  0  0  0  0  0  0  0  0  0  0
    1.8846   -1.0376   -0.1090 C   0  0  0  0  0  0  0  0  0  0  0  0
   -0.3049   -2.9982   -4.3654 C   0  0  0  0  0  0  0  0  0  0  0  0
    0.8176   -0.4410    0.5626 C   0  0  0  0  0  0  0  0  0  0  0  0
    2.9348   -1.6038    0.6137 C   0  0  0  0  0  0  0  0  0  0  0  0
    0.8008   -0.4105    1.9570 C   0  0  0  0  0  0  0  0  0  0  0  0
   -0.3212    0.1724   -0.1853 C   0  0  0  0  0  0  0  0  0  0  0  0
    2.9180   -1.5734    2.0082 C   0  0  0  0  0  0  0  0  0  0  0  0
    4.0904   -2.2496   -0.0789 C   0  0  0  0  0  0  0  0  0  0  0  0
    1.8509   -0.9767    2.6799 C   0  0  0  0  0  0  0  0  0  0  0  0
    1.8345   -0.9461    4.0407 O   0  0  0  0  0  0  0  0  0  0  0  0
    1.2119   -2.0515    4.6521 C   0  0  0  0  0  0  0  0  0  0  0  0
    0.7126   -2.9826    4.0272 O   0  0  0  0  0  0  0  0  0  0  0  0
    1.2440   -1.9321    6.0262 N   0  0  0  0  0  0  0  0  0  0  0  0
    0.6830   -2.9126    6.9263 C   0  0  0  0  0  0  0  0  0  0  0  0
  1  2  2  0  0  0  0 
  1  3  2  0  0  0  0 
  1  4  1  0  0  0  0 
  1  5  1  0  0  0  0 
  4  6  1  0  0  0  0 
  5  7  1  0  0  0  0 
  6  8  2  0  0  0  0 
  6  9  1  0  0  0  0 
  8 10  1  0  0  0  0 
  8 11  1  0  0  0  0 
  9 12  2  0  0  0  0 
  9 13  1  0  0  0  0 
 10 14  2  0  0  0  0 
 12 14  1  0  0  0  0 
 15 14  1  0  0  0  0 
 15 16  1  0  0  0  0 
 17 16  2  0  0  0  0 
 18 16  1  0  0  0  0 
 18 19  1  0  0  0  0 
M  END
> <Name>
Ethanesulfonamide, N-(2,6-dimethyl-4-(((methylamino)carbonyl)oxy)phenyl)-

> <Source>
Chemidplus3DMolFile

> <Tox>
2.565

> <CAS>
64748-21-6

$$$$

  CDK

 16 16  0  0  0  0  0  0  0  0999 V2000
    1.7685    0.5053    0.0000 C   0  0  0  0  0  0  0  0  0  0  0  0
    1.7685    1.5158    0.0000 C   0  0  0  0  0  0  0  0  0  0  0  0
    0.9095    0.0000    0.0000 C   0  0  0  0  0  0  0  0  0  0  0  0
    2.6780    0.0000    0.0000 O   0  0  0  0  0  0  0  0  0  0  0  0
    0.9095    1.9706    0.0000 C   0  0  0  0  0  0  0  0  0  0  0  0
    2.6780    1.9706    0.0000 C   0  0  0  0  0  0  0  0  0  0  0  0
    0.0000    0.5053    0.0000 C   0  0  0  0  0  0  0  0  0  0  0  0
    0.0000    1.5158    0.0000 C   0  0  0  0  0  0  0  0  0  0  0  0
    3.5369    1.5158    0.0000 O   0  0  0  0  0  0  0  0  0  0  0  0
    2.6780    2.9811    0.0000 O   0  0  0  0  0  0  0  0  0  0  0  0
    4.3454    1.9706    0.0000 C   0  0  0  0  0  0  0  0  0  0  0  0
    5.2044    1.5158    0.0000 C   0  0  0  0  0  0  0  0  0  0  0  0
    6.1139    2.0211    0.0000 C   0  0  0  0  0  0  0  0  0  0  0  0
    6.9728    1.5158    0.0000 C   0  0  0  0  0  0  0  0  0  0  0  0
    6.9728    0.5558    0.0000 C   0  0  0  0  0  0  0  0  0  0  0  0
    7.8823    0.1011    0.0000 C   0  0  0  0  0  0  0  0  0  0  0  0
  2  1  2  0  0  0  0 
  1  3  1  0  0  0  0 
  1  4  1  0  0  0  0 
  5  2  1  0  0  0  0 
  2  6  1  0  0  0  0 
  3  7  2  0  0  0  0 
  8  5  2  0  0  0  0 
  6  9  1  0  0  0  0 
  6 10  2  0  0  0  0 
  7  8  1  0  0  0  0 
 11  9  1  0  0  0  0 
 12 11  1  0  0  0  0 
 13 12  1  0  0  0  0 
 13 14  2  0  0  0  0 
 14 15  1  0  0  0  0 
 15 16  1  0  0  0  0 
M  END
> <Name>
Benzoic acid, 2-hydroxy-, 3-hexenyl ester, (Z)-

> <Source>
NIST2DMolFile

> <Tox>
1.644

> <CAS>
65405-77-8

$$$$

  CDK

 30 32  0  0  0  0  0  0  0  0999 V2000
    3.9890   -3.3302    0.0000 C   0  0  0  0  0  0  0  0  0  0  0  0
    5.3187   -3.3302    0.0000 C   0  0  0  0  0  0  0  0  0  0  0  0
    3.3182   -2.2041    0.0000 C   0  0  0  0  0  0  0  0  0  0  0  0
    3.3661   -4.5161    0.0000 C   0  0  0  0  0  0  0  0  0  0  0  0
    5.9775   -4.4801    0.0000 C   0  0  0  0  0  0  0  0  0  0  0  0
    5.9895   -2.2041    0.0000 C   0  0  0  0  0  0  0  0  0  0  0  0
    1.9885   -2.2041    0.0000 C   0  0  0  0  0  0  0  0  0  0  0  0
    2.0364   -4.5161    0.0000 C   0  0  0  0  0  0  0  0  0  0  0  0
    7.2593   -4.4801    0.0000 O   0  0  0  0  0  0  0  0  0  0  0  0
    5.3187   -5.6181    0.0000 O   0  0  0  0  0  0  0  0  0  0  0  0
    7.3072   -2.2041    0.0000 C   0  0  0  0  0  0  0  0  0  0  0  0
    5.3307   -1.0542    0.0000 C   0  0  0  0  0  0  0  0  0  0  0  0
    1.3297   -3.4260    0.0000 C   0  0  0  0  0  0  0  0  0  0  0  0
    7.9900   -5.6541    0.0000 C   0  0  0  0  0  0  0  0  0  0  0  0
    0.0000   -3.4380    0.0000 Cl  0  0  0  0  0  0  0  0  0  0  0  0
    9.3077   -5.6541    0.0000 C   0  0  0  0  0  0  0  0  0  0  0  0
    7.3072   -6.7921    0.0000 C   0  0  0  0  0  0  0  0  0  0  0  0
    9.9785   -4.5640    0.0000 C   0  0  0  0  0  0  0  0  0  0  0  0
    9.9785   -6.8400    0.0000 C   0  0  0  0  0  0  0  0  0  0  0  0
    6.6124   -8.2296    0.0000 N   0  0  0  0  0  0  0  0  0  0  0  0
   11.2603   -4.5640    0.0000 C   0  0  0  0  0  0  0  0  0  0  0  0
   11.2962   -6.8400    0.0000 C   0  0  0  0  0  0  0  0  0  0  0  0
   11.9431   -3.4260    0.0000 O   0  0  0  0  0  0  0  0  0  0  0  0
   11.9790   -5.6780    0.0000 C   0  0  0  0  0  0  0  0  0  0  0  0
   11.2962   -2.2521    0.0000 C   0  0  0  0  0  0  0  0  0  0  0  0
   11.8951   -1.0901    0.0000 C   0  0  0  0  0  0  0  0  0  0  0  0
    9.9905   -2.2521    0.0000 C   0  0  0  0  0  0  0  0  0  0  0  0
   11.2483   -0.0000    0.0000 C   0  0  0  0  0  0  0  0  0  0  0  0
    9.2837   -1.1500    0.0000 C   0  0  0  0  0  0  0  0  0  0  0  0
    9.9426   -0.0000    0.0000 C   0  0  0  0  0  0  0  0  0  0  0  0
  1  2  1  0  0  0  0 
  1  3  2  0  0  0  0 
  1  4  1  0  0  0  0 
  2  5  1  0  0  0  0 
  2  6  1  6  0  0  0 
  3  7  1  0  0  0  0 
  4  8  2  0  0  0  0 
  5  9  1  0  0  0  0 
  5 10  2  0  0  0  0 
  6 11  1  0  0  0  0 
  6 12  1  0  0  0  0 
  7 13  2  0  0  0  0 
  8 13  1  0  0  0  0 
  9 14  1  0  0  0  0 
 13 15  1  0  0  0  0 
 14 16  1  0  0  0  0 
 14 17  1  1  0  0  0 
 16 18  1  0  0  0  0 
 16 19  2  0  0  0  0 
 17 20  3  0  0  0  0 
 18 21  2  0  0  0  0 
 19 22  1  0  0  0  0 
 21 23  1  0  0  0  0 
 21 24  1  0  0  0  0 
 22 24  2  0  0  0  0 
 23 25  1  0  0  0  0 
 25 26  2  0  0  0  0 
 25 27  1  0  0  0  0 
 26 28  1  0  0  0  0 
 27 29  2  0  0  0  0 
 28 30  2  0  0  0  0 
 29 30  1  0  0  0  0 
M  END
> <Name>
Benzeneacetic acid, 4-chloro-alpha-(1-methylethyl)-, cyano (3-phenoxyphenyl)methyl ester, (S-(R*,R*))-

> <Source>
DSSTox2DMolFile

> <Tox>
3.111

> <CAS>
66230-04-4

$$$$

  CDK

 29 29  0  0  0  0  0  0  0  0999 V2000
   21.3999  -15.1260   -2.1155 C   0  0  0  0  0  0  0  0  0  0  0  0
   20.6805  -16.0827   -2.1052 N   0  0  0  0  0  0  0  0  0  0  0  0
   22.6616  -15.2140   -2.1175 C   0  0  0  0  0  0  0  0  0  0  0  0
   20.8595  -13.9858   -2.1376 C   0  0  0  0  0  0  0  0  0  0  0  0
   20.1869  -16.4593   -0.9950 C   0  0  0  0  0  0  0  0  0  0  0  0
   20.1873  -16.4695   -3.2128 C   0  0  0  0  0  0  0  0  0  0  0  0
   23.3664  -14.1682   -2.1436 C   0  0  0  0  0  0  0  0  0  0  0  0
   21.5636  -12.9492   -2.1762 C   0  0  0  0  0  0  0  0  0  0  0  0
   20.9635  -16.4110    0.1590 C   0  0  0  0  0  0  0  0  0  0  0  0
   20.9628  -16.4266   -4.3685 C   0  0  0  0  0  0  0  0  0  0  0  0
   22.8257  -13.0224   -2.1751 C   0  0  0  0  0  0  0  0  0  0  0  0
   20.1085  -16.5921    1.4716 Cl  0  0  0  0  0  0  0  0  0  0  0  0
   20.1100  -16.6243   -5.6798 Cl  0  0  0  0  0  0  0  0  0  0  0  0
   23.5412  -11.9016   -2.1488 C   0  0  0  0  0  0  0  0  0  0  0  0
   23.8661  -11.6136   -0.9260 C   0  0  0  0  0  0  0  0  0  0  0  0
   23.0532  -11.4948   -0.1724 O   0  0  0  0  0  0  0  0  0  0  0  0
   24.9244  -11.5285   -0.6562 O   0  0  0  0  0  0  0  0  0  0  0  0
   23.0620  -11.5819    1.0227 C   0  0  0  0  0  0  0  0  0  0  0  0
   21.8228  -11.3096    1.5691 C   0  0  0  0  0  0  0  0  0  0  0  0
   20.8062  -12.1236    1.0994 C   0  0  0  0  0  0  0  0  0  0  0  0
   19.5982  -11.8607    1.7159 C   0  0  0  0  0  0  0  0  0  0  0  0
   18.5854  -12.6668    1.2345 C   0  0  0  0  0  0  0  0  0  0  0  0
   17.3840  -12.3917    1.8562 C   0  0  0  0  0  0  0  0  0  0  0  0
   16.3699  -13.1964    1.3789 C   0  0  0  0  0  0  0  0  0  0  0  0
   15.1702  -12.9204    2.0032 C   0  0  0  0  0  0  0  0  0  0  0  0
   14.1512  -13.7237    1.5300 C   0  0  0  0  0  0  0  0  0  0  0  0
   12.9499  -13.4485    2.1550 C   0  0  0  0  0  0  0  0  0  0  0  0
   11.9170  -14.2444    1.6934 C   0  0  0  0  0  0  0  0  0  0  0  0
   10.7207  -13.9657    2.3205 C   0  0  0  0  0  0  0  0  0  0  0  0
  1  2  1  0  0  0  0 
  1  3  2  0  0  0  0 
  1  4  1  0  0  0  0 
  2  5  1  0  0  0  0 
  2  6  1  0  0  0  0 
  3  7  1  0  0  0  0 
  4  8  2  0  0  0  0 
  5  9  1  0  0  0  0 
  6 10  1  0  0  0  0 
  7 11  2  0  0  0  0 
  8 11  1  0  0  0  0 
  9 12  1  0  0  0  0 
 10 13  1  0  0  0  0 
 11 14  1  0  0  0  0 
 14 15  1  0  0  0  0 
 15 16  1  0  0  0  0 
 15 17  2  0  0  0  0 
 16 18  1  0  0  0  0 
 18 19  1  0  0  0  0 
 19 20  1  0  0  0  0 
 20 21  1  0  0  0  0 
 21 22  1  0  0  0  0 
 22 23  1  0  0  0  0 
 23 24  1  0  0  0  0 
 24 25  1  0  0  0  0 
 25 26  1  0  0  0  0 
 26 27  1  0  0  0  0 
 27 28  1  0  0  0  0 
 28 29  1  0  0  0  0 
M  END
> <Name>
Acetic acid, 2-(N,N-bis(2-chloroethyl)aminophenyl)-, dodecyl ester

> <Source>
Chemidplus3DMolFile

> <Tox>
3.791

> <CAS>
66232-27-7

$$$$

  CDK

 35 35  0  0  0  0  0  0  0  0999 V2000
    0.0000    0.0000    0.0000 Cl  0  0  0  0  0  0  0  0  0  0  0  0
    0.7200    1.3000    1.0000 C   0  0  0  0  0  0  0  0  0  0  0  0
    1.4200    0.7000    2.2000 C   0  0  0  0  0  0  0  0  0  0  0  0
    1.9600    1.7400    3.0800 N   0  0  0  0  0  0  0  0  0  0  0  0
    3.3200    2.2600    2.8000 C   0  0  0  0  0  0  0  0  0  0  0  0
    1.2400    2.2400    4.1200 C   0  0  0  0  0  0  0  0  0  0  0  0
    4.3600    1.4800    3.5800 C   0  0  0  0  0  0  0  0  0  0  0  0
    1.8800    2.9800    5.1400 C   0  0  0  0  0  0  0  0  0  0  0  0
   -0.1600    2.0200    4.1800 C   0  0  0  0  0  0  0  0  0  0  0  0
    5.9800    2.1400    3.2600 Cl  0  0  0  0  0  0  0  0  0  0  0  0
    1.1400    3.5000    6.2200 C   0  0  0  0  0  0  0  0  0  0  0  0
   -0.9000    2.5400    5.2600 C   0  0  0  0  0  0  0  0  0  0  0  0
   -0.2600    3.2800    6.2800 C   0  0  0  0  0  0  0  0  0  0  0  0
   -1.0400    3.8200    7.4200 C   0  0  0  0  0  0  0  0  0  0  0  0
   -1.4600    5.2400    7.1800 C   0  0  0  0  0  0  0  0  0  0  0  0
   -1.0400    6.1200    8.0800 O   0  0  0  0  0  0  0  0  0  0  0  0
   -2.1600    5.5400    6.2400 O   0  0  0  0  0  0  0  0  0  0  0  0
   -1.3800    7.4600    7.7400 C   0  0  0  0  0  0  0  0  0  0  0  0
   -0.2400    8.1000    6.9600 C   0  0  0  0  0  0  0  0  0  0  0  0
    0.0200    7.4200    5.6200 C   0  0  0  0  0  0  0  0  0  0  0  0
    1.1000    8.1200    4.8000 C   0  0  0  0  0  0  0  0  0  0  0  0
    1.5000    7.3200    3.5600 C   0  0  0  0  0  0  0  0  0  0  0  0
    2.6800    7.9400    2.8200 C   0  0  0  0  0  0  0  0  0  0  0  0
    3.1800    7.0800    1.6600 C   0  0  0  0  0  0  0  0  0  0  0  0
    4.4600    7.6000    1.0200 C   0  0  0  0  0  0  0  0  0  0  0  0
    5.0200    6.6800   -0.0600 C   0  0  0  0  0  0  0  0  0  0  0  0
    6.3400    7.1600   -0.6200 C   0  0  0  0  0  0  0  0  0  0  0  0
    6.9400    6.2000   -1.6400 C   0  0  0  0  0  0  0  0  0  0  0  0
    8.3000    6.6400   -2.1600 C   0  0  0  0  0  0  0  0  0  0  0  0
    8.9200    5.6400   -3.1400 C   0  0  0  0  0  0  0  0  0  0  0  0
   10.3200    6.0600   -3.6200 C   0  0  0  0  0  0  0  0  0  0  0  0
   10.9400    5.0600   -4.5800 C   0  0  0  0  0  0  0  0  0  0  0  0
   12.3400    5.4800   -5.0400 C   0  0  0  0  0  0  0  0  0  0  0  0
   12.9600    4.4600   -6.0000 C   0  0  0  0  0  0  0  0  0  0  0  0
   14.3600    4.8800   -6.4600 C   0  0  0  0  0  0  0  0  0  0  0  0
  1  2  1  0  0  0  0 
  2  3  1  0  0  0  0 
  3  4  1  0  0  0  0 
  4  5  1  0  0  0  0 
  4  6  1  0  0  0  0 
  5  7  1  0  0  0  0 
  8  6  2  0  0  0  0 
  6  9  1  0  0  0  0 
  7 10  1  0  0  0  0 
 11  8  1  0  0  0  0 
 12  9  2  0  0  0  0 
 13 11  2  0  0  0  0 
 13 12  1  0  0  0  0 
 14 13  1  0  0  0  0 
 15 14  1  0  0  0  0 
 15 16  1  0  0  0  0 
 15 17  2  0  0  0  0 
 16 18  1  0  0  0  0 
 18 19  1  0  0  0  0 
 19 20  1  0  0  0  0 
 20 21  1  0  0  0  0 
 21 22  1  0  0  0  0 
 22 23  1  0  0  0  0 
 23 24  1  0  0  0  0 
 24 25  1  0  0  0  0 
 25 26  1  0  0  0  0 
 26 27  1  0  0  0  0 
 27 28  1  0  0  0  0 
 28 29  1  0  0  0  0 
 29 30  1  0  0  0  0 
 30 31  1  0  0  0  0 
 31 32  1  0  0  0  0 
 32 33  1  0  0  0  0 
 33 34  1  0  0  0  0 
 34 35  1  0  0  0  0 
M  END
> <Name>
Acetic acid, 2-(N,N-bis(2-chloroethyl)aminophenyl)-, octadecyl ester

> <Source>
NIH3DMolFile

> <Tox>
3.422

> <CAS>
66232-30-2

$$$$

  CDK

 15 16  0  0  0  0  0  0  0  0999 V2000
    4.2342   -2.3312   -0.2632 Cl  0  0  0  0  0  0  0  0  0  0  0  0
    2.9348   -1.6038    0.6137 C   0  0  0  0  0  0  0  0  0  0  0  0
    2.9180   -1.5734    2.0082 C   0  0  0  0  0  0  0  0  0  0  0  0
    1.8846   -1.0376   -0.1090 C   0  0  0  0  0  0  0  0  0  0  0  0
    3.9840   -2.1483    2.7420 N   0  0  0  0  0  0  0  0  0  0  0  0
    1.8509   -0.9767    2.6799 C   0  0  0  0  0  0  0  0  0  0  0  0
    0.8176   -0.4410    0.5626 C   0  0  0  0  0  0  0  0  0  0  0  0
    5.1973   -1.6255    3.2187 C   0  0  0  0  0  0  0  0  0  0  0  0
    1.7848   -0.9144    4.4057 Cl  0  0  0  0  0  0  0  0  0  0  0  0
    0.8008   -0.4105    1.9570 C   0  0  0  0  0  0  0  0  0  0  0  0
    6.0010   -2.4725    3.8965 N   0  0  0  0  0  0  0  0  0  0  0  0
    5.4452   -0.3249    2.9551 N   0  0  0  0  0  0  0  0  0  0  0  0
    7.1570   -1.9371    4.3407 C   0  0  0  0  0  0  0  0  0  0  0  0
    6.6183    0.1446    3.4283 C   0  0  0  0  0  0  0  0  0  0  0  0
    7.5223   -0.6224    4.1345 C   0  0  0  0  0  0  0  0  0  0  0  0
  1  2  1  0  0  0  0 
  3  2  2  0  0  0  0 
  2  4  1  0  0  0  0 
  5  3  1  0  0  0  0 
  3  6  1  0  0  0  0 
  4  7  2  0  0  0  0 
  5  8  1  0  0  0  0 
  9  6  1  0  0  0  0 
  6 10  2  0  0  0  0 
 10  7  1  0  0  0  0 
 11  8  1  0  0  0  0 
 12  8  2  0  0  0  0 
 11 13  2  0  0  0  0 
 12 14  1  0  0  0  0 
 13 15  1  0  0  0  0 
 14 15  2  0  0  0  0 
M  END
> <Name>
2-Pyrimidinamine, N-(2,6-dichlorophenyl)-

> <Source>
Chemidplus3DMolFile

> <Tox>
1.706

> <CAS>
66501-16-4

$$$$

  CDK

 16 16  0  0  0  0  0  0  0  0999 V2000
    3.1775    0.4092    1.8712 S   0  0  0  0  0  0  0  0  0  0  0  0
    4.3046   -0.9030    2.1430 C   0  0  0  0  0  0  0  0  0  0  0  0
    1.8967   -0.4709    0.9348 C   0  0  0  0  0  0  0  0  0  0  0  0
    5.5471   -0.6092    2.3470 N   0  0  0  0  0  0  0  0  0  0  0  0
    3.8186   -2.3491    2.0936 C   0  0  0  0  0  0  0  0  0  0  0  0
    1.3994   -1.6437    1.7583 C   0  0  0  0  0  0  0  0  0  0  0  0
    0.7707    0.5010    0.5971 C   0  0  0  0  0  0  0  0  0  0  0  0
    6.2624   -1.8038    2.4955 O   0  0  0  0  0  0  0  0  0  0  0  0
    2.3767   -2.4113    2.3566 N   0  0  0  0  0  0  0  0  0  0  0  0
    4.5253   -3.1434    3.2098 C   0  0  0  0  0  0  0  0  0  0  0  0
    4.1712   -2.9874    0.7449 C   0  0  0  0  0  0  0  0  0  0  0  0
    0.2019   -1.9039    1.8803 O   0  0  0  0  0  0  0  0  0  0  0  0
    7.5796   -1.5033    2.7120 C   0  0  0  0  0  0  0  0  0  0  0  0
    8.0442   -0.3687    2.7674 O   0  0  0  0  0  0  0  0  0  0  0  0
    8.3001   -2.6706    2.8608 N   0  0  0  0  0  0  0  0  0  0  0  0
    9.7233   -2.7029    3.1058 C   0  0  0  0  0  0  0  0  0  0  0  0
  1  2  1  0  0  0  0 
  1  3  1  0  0  0  0 
  4  2  2  0  0  0  0 
  5  2  1  0  0  0  0 
  3  6  1  0  0  0  0 
  3  7  1  0  0  0  0 
  8  4  1  0  0  0  0 
  9  5  1  0  0  0  0 
  5 10  1  0  0  0  0 
  5 11  1  0  0  0  0 
 12  6  2  0  0  0  0 
  9  6  1  0  0  0  0 
  8 13  1  0  0  0  0 
 14 13  2  0  0  0  0 
 15 13  1  0  0  0  0 
 15 16  1  0  0  0  0 
M  END
> <Name>
2,5-Thiomorpholinedione, 3,3,6-trimethyl-, 2-(O-((methylamino)carbonyl)oxime)

> <Source>
Chemidplus3DMolFile

> <Tox>
5.443

> <CAS>
66637-26-1

$$$$

  CDK

 36 39  0  0  0  0  0  0  0  0999 V2000
    6.7158    2.0047    0.0000 C   0  0  0  0  0  0  0  0  0  0  0  0
    6.7158    3.0071    0.0000 C   0  0  0  0  0  0  0  0  0  0  0  0
    5.0118    2.0047    0.0000 C   0  0  0  0  0  0  0  0  0  0  0  0
    5.8638    3.4581    0.0000 C   0  0  0  0  0  0  0  0  0  0  0  0
    7.3172    3.0572    0.0000 C   0  0  0  0  0  0  0  0  0  0  0  0
    5.0118    2.9569    0.0000 C   0  0  0  0  0  0  0  0  0  0  0  0
    4.2099    1.5035    0.0000 C   0  0  0  0  0  0  0  0  0  0  0  0
    5.8638    4.4605    0.0000 C   0  0  0  0  0  0  0  0  0  0  0  0
    6.7659    3.9593    0.0000 O   0  0  0  0  0  0  0  0  0  0  0  0
    5.0118    4.0094    0.0000 C   0  0  0  0  0  0  0  0  0  0  0  0
    4.1598    3.4581    0.0000 C   0  0  0  0  0  0  0  0  0  0  0  0
    3.3579    2.0047    0.0000 C   0  0  0  0  0  0  0  0  0  0  0  0
    4.2099    0.5513    0.0000 C   0  0  0  0  0  0  0  0  0  0  0  0
    6.7659    5.0118    0.0000 C   0  0  0  0  0  0  0  0  0  0  0  0
    5.0118    5.0118    0.0000 O   0  0  0  0  0  0  0  0  0  0  0  0
    7.6179    3.5082    0.0000 C   0  0  0  0  0  0  0  0  0  0  0  0
    3.3078    2.9569    0.0000 C   0  0  0  0  0  0  0  0  0  0  0  0
    2.5059    1.5035    0.0000 C   0  0  0  0  0  0  0  0  0  0  0  0
    3.3579    0.0501    0.0000 C   0  0  0  0  0  0  0  0  0  0  0  0
    5.0619    0.0501    0.0000 Cl  0  0  0  0  0  0  0  0  0  0  0  0
    6.7158    5.9640    0.0000 O   0  0  0  0  0  0  0  0  0  0  0  0
    8.5200    4.0094    0.0000 C   0  0  0  0  0  0  0  0  0  0  0  0
    7.6179    2.4558    0.0000 O   0  0  0  0  0  0  0  0  0  0  0  0
    2.4558    3.4581    0.0000 O   0  0  0  0  0  0  0  0  0  0  0  0
    2.5059    0.5012    0.0000 C   0  0  0  0  0  0  0  0  0  0  0  0
    2.5059    2.5059    0.0000 C   0  0  0  0  0  0  0  0  0  0  0  0
    1.6539    2.0047    0.0000 C   0  0  0  0  0  0  0  0  0  0  0  0
    7.6179    6.4652    0.0000 C   0  0  0  0  0  0  0  0  0  0  0  0
    9.3720    3.5082    0.0000 C   0  0  0  0  0  0  0  0  0  0  0  0
    1.6539    0.0000    0.0000 C   0  0  0  0  0  0  0  0  0  0  0  0
    0.8520    1.5035    0.0000 C   0  0  0  0  0  0  0  0  0  0  0  0
    7.6179    7.4675    0.0000 C   0  0  0  0  0  0  0  0  0  0  0  0
    8.4699    5.9640    0.0000 O   0  0  0  0  0  0  0  0  0  0  0  0
    0.8520    0.5012    0.0000 C   0  0  0  0  0  0  0  0  0  0  0  0
    8.4699    8.0188    0.0000 C   0  0  0  0  0  0  0  0  0  0  0  0
    0.0000    0.0000    0.0000 O   0  0  0  0  0  0  0  0  0  0  0  0
  2  1  1  0  0  0  0 
  1  3  1  0  0  0  0 
  4  2  1  0  0  0  0 
  2  5  1  0  0  0  0 
  3  6  1  0  0  0  0 
  3  7  1  0  0  0  0 
  6  4  1  0  0  0  0 
  4  8  1  0  0  0  0 
  4  9  1  0  0  0  0 
  6 10  1  0  0  0  0 
 11  6  1  0  0  0  0 
  7 12  1  0  0  0  0 
  7 13  1  0  0  0  0 
  8 14  1  0  0  0  0 
  8 15  2  0  0  0  0 
  9 16  1  0  0  0  0 
 17 11  1  0  0  0  0 
 12 17  1  0  0  0  0 
 18 12  1  0  0  0  0 
 13 19  1  0  0  0  0 
 13 20  1  0  0  0  0 
 14 21  1  0  0  0  0 
 16 22  1  0  0  0  0 
 16 23  2  0  0  0  0 
 17 24  1  0  0  0  0 
 25 18  1  0  0  0  0 
 18 26  1  0  0  0  0 
 27 18  1  0  0  0  0 
 19 25  1  0  0  0  0 
 21 28  1  0  0  0  0 
 22 29  1  0  0  0  0 
 25 30  2  0  0  0  0 
 31 27  2  0  0  0  0 
 28 32  1  0  0  0  0 
 28 33  2  0  0  0  0 
 30 34  1  0  0  0  0 
 34 31  1  0  0  0  0 
 32 35  1  0  0  0  0 
 34 36  2  0  0  0  0 
M  END
> <Name>
Pregna-1,4-diene-3,20-dione, 7-chloro-11-hydroxy-16-methyl-17,21-bis(1-oxopropoxy)-, (7alpha,11beta,16alpha)-

> <Source>
NIST2DMolFile

> <Tox>
2.161

> <CAS>
66734-13-2

$$$$

  CDK

 30 32  0  0  0  0  0  0  0  0999 V2000
   -3.7805   -4.1853   -1.2292 Cl  0  0  0  0  0  0  0  0  0  0  0  0
   -2.1222   -3.8073   -0.9670 C   0  0  0  0  0  0  0  0  0  0  0  0
   -1.7583   -2.9472    0.0691 C   0  0  0  0  0  0  0  0  0  0  0  0
   -1.1418   -4.3618   -1.7897 C   0  0  0  0  0  0  0  0  0  0  0  0
   -0.4142   -2.6415    0.2825 C   0  0  0  0  0  0  0  0  0  0  0  0
    0.2024   -4.0563   -1.5763 C   0  0  0  0  0  0  0  0  0  0  0  0
    0.5387   -3.2023   -0.5446 C   0  0  0  0  0  0  0  0  0  0  0  0
    2.0036   -2.8707   -0.3114 C   0  0  0  0  0  0  0  0  0  0  0  0
    2.9902   -4.0343   -0.6162 C   0  0  0  0  0  0  0  0  0  0  0  0
    2.3674   -1.6364   -1.1314 C   0  0  0  0  0  0  0  0  0  0  0  0
    2.6731   -5.2694    0.2404 C   0  0  0  0  0  0  0  0  0  0  0  0
    4.4480   -3.6267   -0.3611 C   0  0  0  0  0  0  0  0  0  0  0  0
    2.7552   -0.6271   -0.2972 O   0  0  0  0  0  0  0  0  0  0  0  0
    2.3279   -1.5796   -2.3541 O   0  0  0  0  0  0  0  0  0  0  0  0
    3.1432    0.5900   -0.9421 C   0  0  0  0  0  0  0  0  0  0  0  0
    3.4653    1.6278    0.1077 C   0  0  0  0  0  0  0  0  0  0  0  0
    4.2812    0.3465   -1.8397 C   0  0  0  0  0  0  0  0  0  0  0  0
    4.5313    1.4148    0.9662 C   0  0  0  0  0  0  0  0  0  0  0  0
    2.6891    2.7719    0.1904 C   0  0  0  0  0  0  0  0  0  0  0  0
    5.1776    0.1532   -2.5509 N   0  0  0  0  0  0  0  0  0  0  0  0
    4.8293    2.3732    1.9349 C   0  0  0  0  0  0  0  0  0  0  0  0
    2.9873    3.7302    1.1591 C   0  0  0  0  0  0  0  0  0  0  0  0
    4.0574    3.5309    2.0314 C   0  0  0  0  0  0  0  0  0  0  0  0
    4.3469    4.4660    2.9769 O   0  0  0  0  0  0  0  0  0  0  0  0
    4.6159    4.0217    4.2606 C   0  0  0  0  0  0  0  0  0  0  0  0
    3.7991    3.0588    4.8253 C   0  0  0  0  0  0  0  0  0  0  0  0
    5.6938    4.5529    4.9454 C   0  0  0  0  0  0  0  0  0  0  0  0
    4.0694    2.6119    6.1187 C   0  0  0  0  0  0  0  0  0  0  0  0
    5.9642    4.1060    6.2387 C   0  0  0  0  0  0  0  0  0  0  0  0
    5.1520    3.1355    6.8254 C   0  0  0  0  0  0  0  0  0  0  0  0
  1  2  1  0  0  0  0 
  3  2  2  0  0  0  0 
  4  2  1  0  0  0  0 
  5  3  1  0  0  0  0 
  6  4  2  0  0  0  0 
  7  5  2  0  0  0  0 
  7  6  1  0  0  0  0 
  8  7  1  0  0  0  0 
  8  9  1  0  0  0  0 
  8 10  1  0  0  0  0 
  9 11  1  0  0  0  0 
  9 12  1  0  0  0  0 
 13 10  1  0  0  0  0 
 14 10  2  0  0  0  0 
 13 15  1  0  0  0  0 
 15 16  1  0  0  0  0 
 15 17  1  0  0  0  0 
 16 18  2  0  0  0  0 
 16 19  1  0  0  0  0 
 20 17  3  0  0  0  0 
 18 21  1  0  0  0  0 
 19 22  2  0  0  0  0 
 21 23  2  0  0  0  0 
 22 23  1  0  0  0  0 
 24 23  1  0  0  0  0 
 24 25  1  0  0  0  0 
 25 26  2  0  0  0  0 
 25 27  1  0  0  0  0 
 26 28  1  0  0  0  0 
 27 29  2  0  0  0  0 
 28 30  2  0  0  0  0 
 29 30  1  0  0  0  0 
M  END
> <Name>
Acetic acid, 2-(p-chlorophenyl)-2-isopropyl-, cyano(p-phenoxyphenyl)methyl ester

> <Source>
Chemidplus3DMolFile

> <Tox>
2.969

> <CAS>
66827-38-1

$$$$

  CDK

 21 23  0  0  0  0  0  0  0  0999 V2000
    4.2000    2.4267    0.0000 C   0  0  0  0  0  0  0  0  0  0  0  0
    2.8000    2.4267    0.0000 C   0  0  0  0  0  0  0  0  0  0  0  0
    2.1000    1.2133    0.0000 C   0  0  0  0  0  0  0  0  0  0  0  0
    2.1000    3.6400    0.0000 C   0  0  0  0  0  0  0  0  0  0  0  0
    2.8000    0.0000    0.0000 O   0  0  0  0  0  0  0  0  0  0  0  0
    0.7000    1.2133    0.0000 O   0  0  0  0  0  0  0  0  0  0  0  0
    0.7000    3.6400    0.0000 C   0  0  0  0  0  0  0  0  0  0  0  0
    2.8000    4.8533    0.0000 C   0  0  0  0  0  0  0  0  0  0  0  0
    0.0000    4.8533    0.0000 C   0  0  0  0  0  0  0  0  0  0  0  0
    2.1000    6.0667    0.0000 C   0  0  0  0  0  0  0  0  0  0  0  0
    0.7000    6.0667    0.0000 C   0  0  0  0  0  0  0  0  0  0  0  0
    2.5200    7.3733    0.0000 N   0  0  0  0  0  0  0  0  0  0  0  0
    0.2800    7.3733    0.0000 O   0  0  0  0  0  0  0  0  0  0  0  0
    1.4000    8.2133    0.0000 C   0  0  0  0  0  0  0  0  0  0  0  0
    1.4000    9.6133    0.0000 C   0  0  0  0  0  0  0  0  0  0  0  0
    0.1867   10.3133    0.0000 C   0  0  0  0  0  0  0  0  0  0  0  0
    2.6133   10.3133    0.0000 C   0  0  0  0  0  0  0  0  0  0  0  0
    0.1867   11.7133    0.0000 C   0  0  0  0  0  0  0  0  0  0  0  0
    2.6133   11.7133    0.0000 C   0  0  0  0  0  0  0  0  0  0  0  0
    1.4000   12.4133    0.0000 C   0  0  0  0  0  0  0  0  0  0  0  0
    1.4000   13.8133    0.0000 F   0  0  0  0  0  0  0  0  0  0  0  0
  1  2  1  0  0  0  0 
  2  3  1  0  0  0  0 
  2  4  1  0  0  0  0 
  3  5  1  0  0  0  0 
  3  6  2  0  0  0  0 
  4  7  1  0  0  0  0 
  4  8  2  0  0  0  0 
  7  9  2  0  0  0  0 
 10  8  1  0  0  0  0 
  9 11  1  0  0  0  0 
 12 10  1  0  0  0  0 
 11 10  2  0  0  0  0 
 11 13  1  0  0  0  0 
 14 12  2  0  0  0  0 
 13 14  1  0  0  0  0 
 14 15  1  0  0  0  0 
 15 16  2  0  0  0  0 
 15 17  1  0  0  0  0 
 16 18  1  0  0  0  0 
 19 17  2  0  0  0  0 
 18 20  2  0  0  0  0 
 20 19  1  0  0  0  0 
 20 21  1  0  0  0  0 
M  END
> <Name>
5-Benzoxazoleacetic acid, 2-(4-fluorophenyl)-alpha-methyl-, (S)-

> <Source>
IndexNet2DMolFile

> <Tox>
2.738

> <CAS>
66934-18-7

$$$$

  CDK

 23 22  0  0  0  0  0  0  0  0999 V2000
    3.5972   -4.7239   -5.7184 S   0  0  0  0  0  0  0  0  0  0  0  0
    2.8643   -4.3020   -7.1559 N   0  0  0  0  0  0  0  0  0  0  0  0
    3.0890   -3.5323   -4.5940 N   0  0  0  0  0  0  0  0  0  0  0  0
    2.7008   -5.6104   -8.1914 P   0  0  0  0  0  0  0  0  0  0  0  0
    3.1709   -2.9916   -7.7293 C   0  0  0  0  0  0  0  0  0  0  0  0
    1.6480   -3.4043   -4.3983 C   0  0  0  0  0  0  0  0  0  0  0  0
    4.0522   -2.7409   -3.9649 C   0  0  0  0  0  0  0  0  0  0  0  0
    4.2846   -6.1916   -9.1955 S   0  0  0  0  0  0  0  0  0  0  0  0
    2.0106   -6.8036   -7.3105 O   0  0  0  0  0  0  0  0  0  0  0  0
    1.4696   -5.2217   -9.1958 O   0  0  0  0  0  0  0  0  0  0  0  0
    2.0717   -2.5685   -8.6997 C   0  0  0  0  0  0  0  0  0  0  0  0
    4.5262   -3.0471   -8.4270 C   0  0  0  0  0  0  0  0  0  0  0  0
    3.4872   -1.8078   -3.1327 O   0  0  0  0  0  0  0  0  0  0  0  0
    5.2663   -2.8520   -4.1326 O   0  0  0  0  0  0  0  0  0  0  0  0
    0.7354   -6.6207   -6.7174 C   0  0  0  0  0  0  0  0  0  0  0  0
    1.0545   -6.1174  -10.2154 C   0  0  0  0  0  0  0  0  0  0  0  0
    4.5023   -1.0503   -2.5356 N   0  0  0  0  0  0  0  0  0  0  0  0
    0.3538   -7.8808   -5.9702 C   0  0  0  0  0  0  0  0  0  0  0  0
   -0.0942   -5.4955  -10.9805 C   0  0  0  0  0  0  0  0  0  0  0  0
    4.0053   -0.1562   -1.7405 C   0  0  0  0  0  0  0  0  0  0  0  0
    2.2632   -0.0210   -1.5201 S   0  0  0  0  0  0  0  0  0  0  0  0
    4.8208    0.8268   -0.9390 C   0  0  0  0  0  0  0  0  0  0  0  0
    1.8187    1.1624   -2.8096 C   0  0  0  0  0  0  0  0  0  0  0  0
  1  2  1  0  0  0  0 
  1  3  1  0  0  0  0 
  4  2  1  0  0  0  0 
  2  5  1  0  0  0  0 
  3  6  1  0  0  0  0 
  3  7  1  0  0  0  0 
  8  4  2  0  0  0  0 
  4  9  1  0  0  0  0 
  4 10  1  0  0  0  0 
  5 11  1  0  0  0  0 
  5 12  1  0  0  0  0 
 13  7  1  0  0  0  0 
 14  7  2  0  0  0  0 
  9 15  1  0  0  0  0 
 10 16  1  0  0  0  0 
 13 17  1  0  0  0  0 
 15 18  1  0  0  0  0 
 16 19  1  0  0  0  0 
 17 20  2  0  0  0  0 
 21 20  1  0  0  0  0 
 20 22  1  0  0  0  0 
 21 23  1  0  0  0  0 
M  END
> <Name>
Ethanimidothioic acid, N-((5-ethoxy-2-methyl-4-(1-methylethyl)-1-oxo-6-oxa-3-thia-2,4-diaza-5-phosphaoct-1-yl)oxy)-, methyl ester, P-sulfide

> <Source>
Chemidplus3DMolFile

> <Tox>
3.094

> <CAS>
66996-10-9

$$$$

  CDK

 16 16  0  0  0  0  0  0  0  0999 V2000
   -0.0894   -1.6216    2.1812 O   0  0  0  0  0  0  0  0  0  0  0  0
   -0.9828   -0.5682    1.8102 C   0  0  0  0  0  0  0  0  0  0  0  0
   -1.8396   -1.0030    0.5999 C   0  0  0  0  0  0  0  0  0  0  0  0
   -1.7963   -0.2315    3.0416 C   0  0  0  0  0  0  0  0  0  0  0  0
   -2.7221    0.0999    0.1989 N   0  0  0  0  0  0  0  0  0  0  0  0
   -2.7144   -2.2201    0.9063 C   0  0  0  0  0  0  0  0  0  0  0  0
   -2.2310    1.0690    3.2290 C   0  0  0  0  0  0  0  0  0  0  0  0
   -2.0870   -1.2314    3.9530 C   0  0  0  0  0  0  0  0  0  0  0  0
   -3.5308   -0.2929   -0.9520 C   0  0  0  0  0  0  0  0  0  0  0  0
   -1.9349    1.2915   -0.1062 C   0  0  0  0  0  0  0  0  0  0  0  0
   -2.9802    1.3794    4.3640 C   0  0  0  0  0  0  0  0  0  0  0  0
   -2.8363   -0.9211    5.0879 C   0  0  0  0  0  0  0  0  0  0  0  0
   -4.4865    0.8261   -1.3524 C   0  0  0  0  0  0  0  0  0  0  0  0
   -3.2829    0.3843    5.2933 C   0  0  0  0  0  0  0  0  0  0  0  0
   -5.3177    0.4525   -2.5063 C   0  0  0  0  0  0  0  0  0  0  0  0
   -5.9747    0.1596   -3.4168 N   0  0  0  0  0  0  0  0  0  0  0  0
  1  2  1  0  0  0  0 
  3  2  1  0  0  0  0 
  2  4  1  0  0  0  0 
  5  3  1  0  0  0  0 
  3  6  1  0  0  0  0 
  4  7  2  0  0  0  0 
  4  8  1  0  0  0  0 
  5  9  1  0  0  0  0 
  5 10  1  0  0  0  0 
  7 11  1  0  0  0  0 
  8 12  2  0  0  0  0 
  9 13  1  0  0  0  0 
 11 14  2  0  0  0  0 
 12 14  1  0  0  0  0 
 13 15  1  0  0  0  0 
 16 15  3  0  0  0  0 
M  END
> <Name>
Propanenitrile, 3-((2-hydroxy-1-methyl-2-phenylethyl)methylamino)-

> <Source>
Chemidplus3DMolFile

> <Tox>
2.366

> <CAS>
67055-59-8

$$$$

  CDK

 42 50  0  0  0  0  0  0  0  0999 V2000
   20.3801  -13.8262    0.0938 C   0  0  0  0  0  0  0  0  0  0  0  0
   21.7534  -13.7978    0.0981 C   0  0  0  0  0  0  0  0  0  0  0  0
   19.6807  -12.6683    0.0435 C   0  0  0  0  0  0  0  0  0  0  0  0
   19.6750  -14.9929    0.1314 C   0  0  0  0  0  0  0  0  0  0  0  0
   22.4620  -12.6255    0.0684 C   0  0  0  0  0  0  0  0  0  0  0  0
   22.4300  -14.9746    0.1190 C   0  0  0  0  0  0  0  0  0  0  0  0
   18.3250  -12.6674   -0.0442 C   0  0  0  0  0  0  0  0  0  0  0  0
   20.3937  -11.5301    0.0877 C   0  0  0  0  0  0  0  0  0  0  0  0
   18.3110  -14.9906    0.1286 C   0  0  0  0  0  0  0  0  0  0  0  0
   20.4034  -16.1275    0.1689 C   0  0  0  0  0  0  0  0  0  0  0  0
   23.8519  -12.6699    0.0518 C   0  0  0  0  0  0  0  0  0  0  0  0
   21.7311  -11.4810    0.0462 C   0  0  0  0  0  0  0  0  0  0  0  0
   23.7628  -14.9993    0.0888 C   0  0  0  0  0  0  0  0  0  0  0  0
   21.7333  -16.1245    0.1618 C   0  0  0  0  0  0  0  0  0  0  0  0
   17.6209  -13.8186    0.0557 C   0  0  0  0  0  0  0  0  0  0  0  0
   17.6137  -11.5508   -0.2879 C   0  0  0  0  0  0  0  0  0  0  0  0
   17.5671  -16.1172    0.1753 C   0  0  0  0  0  0  0  0  0  0  0  0
   24.4806  -13.8799    0.0146 C   0  0  0  0  0  0  0  0  0  0  0  0
   24.6728  -11.5878    0.0723 C   0  0  0  0  0  0  0  0  0  0  0  0
   22.1570  -10.2936   -0.0526 N   0  0  0  0  0  0  0  0  0  0  0  0
   24.3178  -16.0285    0.1384 O   0  0  0  0  0  0  0  0  0  0  0  0
   16.2517  -13.7817    0.0516 C   0  0  0  0  0  0  0  0  0  0  0  0
   16.2754  -11.4696   -0.2585 C   0  0  0  0  0  0  0  0  0  0  0  0
   16.2358  -16.1024    0.1387 C   0  0  0  0  0  0  0  0  0  0  0  0
   25.8311  -13.9477   -0.0904 C   0  0  0  0  0  0  0  0  0  0  0  0
   26.0026  -11.6574   -0.0425 C   0  0  0  0  0  0  0  0  0  0  0  0
   22.2117   -9.6172    0.8306 O   0  0  0  0  0  0  0  0  0  0  0  0
   22.4347   -9.8786   -1.0510 O   0  0  0  0  0  0  0  0  0  0  0  0
   15.5669  -12.6010   -0.0012 C   0  0  0  0  0  0  0  0  0  0  0  0
   15.5543  -14.9463    0.0633 C   0  0  0  0  0  0  0  0  0  0  0  0
   15.8040  -10.3150   -0.5488 N   0  0  0  0  0  0  0  0  0  0  0  0
   26.5869  -12.8487   -0.1369 C   0  0  0  0  0  0  0  0  0  0  0  0
   14.1930  -12.6264    0.1321 C   0  0  0  0  0  0  0  0  0  0  0  0
   14.2220  -14.9411   -0.0325 C   0  0  0  0  0  0  0  0  0  0  0  0
   15.0319  -10.1709   -1.3364 O   0  0  0  0  0  0  0  0  0  0  0  0
   16.1660   -9.3630   -0.0806 O   0  0  0  0  0  0  0  0  0  0  0  0
   13.5302  -13.8025   -0.0323 C   0  0  0  0  0  0  0  0  0  0  0  0
   13.4387  -11.5395    0.4197 C   0  0  0  0  0  0  0  0  0  0  0  0
   13.6425  -15.9551   -0.0954 O   0  0  0  0  0  0  0  0  0  0  0  0
   12.1838  -13.7923   -0.1751 C   0  0  0  0  0  0  0  0  0  0  0  0
   12.1100  -11.5320    0.2676 C   0  0  0  0  0  0  0  0  0  0  0  0
   11.4821  -12.6589   -0.0725 C   0  0  0  0  0  0  0  0  0  0  0  0
  1  2  1  0  0  0  0 
  1  3  2  0  0  0  0 
  1  4  1  0  0  0  0 
  2  5  2  0  0  0  0 
  2  6  1  0  0  0  0 
  3  7  1  0  0  0  0 
  3  8  1  0  0  0  0 
  4  9  1  0  0  0  0 
  4 10  2  0  0  0  0 
  5 11  1  0  0  0  0 
  5 12  1  0  0  0  0 
  6 13  1  0  0  0  0 
  6 14  2  0  0  0  0 
  7 15  1  0  0  0  0 
  7 16  2  0  0  0  0 
  8 12  2  0  0  0  0 
  9 17  2  0  0  0  0 
  9 15  1  0  0  0  0 
 10 14  1  0  0  0  0 
 11 18  2  0  0  0  0 
 11 19  1  0  0  0  0 
 12 20  1  0  0  0  0 
 13 21  2  0  0  0  0 
 13 18  1  0  0  0  0 
 15 22  2  0  0  0  0 
 16 23  1  0  0  0  0 
 17 24  1  0  0  0  0 
 18 25  1  0  0  0  0 
 19 26  2  0  0  0  0 
 20 27  2  0  0  0  0 
 20 28  1  0  0  0  0 
 22 29  1  0  0  0  0 
 22 30  1  0  0  0  0 
 23 31  1  0  0  0  0 
 23 29  2  0  0  0  0 
 24 30  2  0  0  0  0 
 25 32  2  0  0  0  0 
 26 32  1  0  0  0  0 
 29 33  1  0  0  0  0 
 30 34  1  0  0  0  0 
 31 35  2  0  0  0  0 
 31 36  1  0  0  0  0 
 33 37  1  0  0  0  0 
 33 38  2  0  0  0  0 
 34 39  2  0  0  0  0 
 34 37  1  0  0  0  0 
 37 40  2  0  0  0  0 
 38 41  1  0  0  0  0 
 40 42  1  0  0  0  0 
 41 42  2  0  0  0  0 
M  CHG  1  20   1
M  CHG  1  28  -1
M  CHG  1  31   1
M  CHG  1  36  -1
M  END
> <Name>
Anthra(9,1,2-cde)benzo(rst)pentaphene-5,10-dione, 15,18-dinitro-

> <Source>
Chemidplus3DMolFile

> <Tox>
1.738

> <CAS>
67446-03-1

$$$$

  CDK

 11 10  0  0  0  0  0  0  0  0999 V2000
    2.3720   -1.2403   -2.8645 O   0  0  0  0  0  0  0  0  0  0  0  0
    1.1104   -0.8357   -2.5313 C   0  0  0  0  0  0  0  0  0  0  0  0
    2.6032   -2.6672   -2.9435 C   0  0  0  0  0  0  0  0  0  0  0  0
    0.1603   -1.5688   -2.2940 O   0  0  0  0  0  0  0  0  0  0  0  0
    1.0638    0.6760   -2.5310 C   0  0  0  0  0  0  0  0  0  0  0  0
    3.9626   -3.0195   -3.4018 N   0  0  0  0  0  0  0  0  0  0  0  0
   -0.3306    1.2324   -2.2501 C   0  0  0  0  0  0  0  0  0  0  0  0
    4.1258   -4.3042   -3.6391 N   0  0  0  0  0  0  0  0  0  0  0  0
    4.9619   -2.5104   -2.4561 C   0  0  0  0  0  0  0  0  0  0  0  0
   -0.3632    2.7545   -2.2486 C   0  0  0  0  0  0  0  0  0  0  0  0
    3.7504   -4.5965   -4.7808 O   0  0  0  0  0  0  0  0  0  0  0  0
  1  2  1  0  0  0  0 
  1  3  1  0  0  0  0 
  4  2  2  0  0  0  0 
  5  2  1  0  0  0  0 
  6  3  1  0  0  0  0 
  5  7  1  0  0  0  0 
  6  8  1  0  0  0  0 
  6  9  1  0  0  0  0 
  7 10  1  0  0  0  0 
 11  8  2  0  0  0  0 
M  END
> <Name>
Butyric acid, methylnitrosamino methyl ester

> <Source>
Chemidplus3DMolFile

> <Tox>
2.301

> <CAS>
67557-56-6

$$$$

  CDK

 31 33  0  0  0  0  0  0  0  0999 V2000
    5.2813   -1.0349    0.0000 C   0  0  0  0  0  0  0  0  0  0  0  0
    4.6212   -2.2124    0.0000 C   0  0  0  0  0  0  0  0  0  0  0  0
    5.9950   -2.2124    0.0000 C   0  0  0  0  0  0  0  0  0  0  0  0
    5.9950   -0.0000    0.0000 C   0  0  0  0  0  0  0  0  0  0  0  0
    4.7461   -0.0000    0.0000 C   0  0  0  0  0  0  0  0  0  0  0  0
    3.4971   -2.8369    0.0000 C   0  0  0  0  0  0  0  0  0  0  0  0
    7.2797   -2.8726    0.0000 C   0  0  0  0  0  0  0  0  0  0  0  0
    2.3017   -2.2124    0.0000 C   0  0  0  0  0  0  0  0  0  0  0  0
    8.4037   -2.2124    0.0000 O   0  0  0  0  0  0  0  0  0  0  0  0
    7.2797   -4.1929    0.0000 O   0  0  0  0  0  0  0  0  0  0  0  0
    1.1776   -2.8369    0.0000 C   0  0  0  0  0  0  0  0  0  0  0  0
    2.3017   -0.8386    0.0000 Cl  0  0  0  0  0  0  0  0  0  0  0  0
    9.5278   -2.8726    0.0000 C   0  0  0  0  0  0  0  0  0  0  0  0
    0.0000   -3.4436    0.0000 F   0  0  0  0  0  0  0  0  0  0  0  0
    0.5710   -1.6772    0.0000 F   0  0  0  0  0  0  0  0  0  0  0  0
    1.7485   -3.9967    0.0000 F   0  0  0  0  0  0  0  0  0  0  0  0
    9.5278   -4.1929    0.0000 C   0  0  0  0  0  0  0  0  0  0  0  0
   10.7232   -2.2124    0.0000 C   0  0  0  0  0  0  0  0  0  0  0  0
    9.5278   -5.3884    0.0000 N   0  0  0  0  0  0  0  0  0  0  0  0
   11.8651   -2.8726    0.0000 C   0  0  0  0  0  0  0  0  0  0  0  0
   10.7232   -0.8921    0.0000 C   0  0  0  0  0  0  0  0  0  0  0  0
   13.0963   -2.2838    0.0000 C   0  0  0  0  0  0  0  0  0  0  0  0
   11.8651   -0.1963    0.0000 C   0  0  0  0  0  0  0  0  0  0  0  0
   14.2560   -2.8726    0.0000 O   0  0  0  0  0  0  0  0  0  0  0  0
   13.0963   -0.8921    0.0000 C   0  0  0  0  0  0  0  0  0  0  0  0
   15.5050   -2.2124    0.0000 C   0  0  0  0  0  0  0  0  0  0  0  0
   15.5050   -0.8921    0.0000 C   0  0  0  0  0  0  0  0  0  0  0  0
   16.6112   -2.8726    0.0000 C   0  0  0  0  0  0  0  0  0  0  0  0
   16.6112   -0.2498    0.0000 C   0  0  0  0  0  0  0  0  0  0  0  0
   17.8423   -2.2838    0.0000 C   0  0  0  0  0  0  0  0  0  0  0  0
   17.8423   -0.8921    0.0000 C   0  0  0  0  0  0  0  0  0  0  0  0
  1  2  1  0  0  0  0 
  1  3  1  0  0  0  0 
  1  4  1  0  0  0  0 
  1  5  1  0  0  0  0 
  2  6  1  1  0  0  0 
  2  3  1  0  0  0  0 
  3  7  1  1  0  0  0 
  6  8  2  0  0  0  0 
  7  9  1  0  0  0  0 
  7 10  2  0  0  0  0 
 11  8  1  0  0  0  0 
  8 12  1  0  0  0  0 
  9 13  1  0  0  0  0 
 11 14  1  0  0  0  0 
 11 15  1  0  0  0  0 
 11 16  1  0  0  0  0 
 13 17  1  1  0  0  0 
 13 18  1  0  0  0  0 
 19 17  3  0  0  0  0 
 18 20  1  0  0  0  0 
 18 21  2  0  0  0  0 
 20 22  2  0  0  0  0 
 21 23  1  0  0  0  0 
 22 24  1  0  0  0  0 
 22 25  1  0  0  0  0 
 23 25  2  0  0  0  0 
 24 26  1  0  0  0  0 
 26 27  1  0  0  0  0 
 26 28  2  0  0  0  0 
 27 29  2  0  0  0  0 
 28 30  1  0  0  0  0 
 29 31  1  0  0  0  0 
 30 31  2  0  0  0  0 
M  END
> <Name>
Cyclopropanecarboxylic acid, 3-(2-chloro-3,3,3-trifluoro-1-propenyl)-2,2-dimethyl-, cyano(3-phenoxyphenyl)methyl ester

> <Source>
DSSTox2DMolFile

> <Tox>
3.495

> <CAS>
68085-85-8

$$$$

  CDK

 10  9  0  0  0  0  0  0  0  0999 V2000
    4.8506    0.0000    0.0000 C   0  0  0  0  0  0  0  0  0  0  0  0
    3.6380    0.6996    0.0000 C   0  0  0  0  0  0  0  0  0  0  0  0
    6.0633    0.6996    0.0000 O   0  0  0  0  0  0  0  0  0  0  0  0
    2.4253    0.0000    0.0000 C   0  0  0  0  0  0  0  0  0  0  0  0
    7.2760    0.0000    0.0000 C   0  0  0  0  0  0  0  0  0  0  0  0
    1.2127    0.6996    0.0000 C   0  0  0  0  0  0  0  0  0  0  0  0
    8.4886    0.6996    0.0000 C   0  0  0  0  0  0  0  0  0  0  0  0
    1.2127    2.0988    0.0000 C   0  0  0  0  0  0  0  0  0  0  0  0
    9.7013    0.0000    0.0000 O   0  0  0  0  0  0  0  0  0  0  0  0
    0.0000    2.7984    0.0000 C   0  0  0  0  0  0  0  0  0  0  0  0
  1  2  1  0  0  0  0 
  1  3  1  0  0  0  0 
  2  4  1  0  0  0  0 
  3  5  1  0  0  0  0 
  4  6  2  0  0  0  0 
  5  7  1  0  0  0  0 
  6  8  1  0  0  0  0 
  7  9  2  0  0  0  0 
  8 10  1  0  0  0  0 
M  END
> <Name>
Acetaldehyde, (3-hexenyloxy)-, (Z)-

> <Source>
IndexNet2DMolFile

> <Tox>
1.540

> <CAS>
68133-72-2

$$$$

  CDK

 27 28  0  0  0  0  0  0  0  0999 V2000
   14.5053    2.0988    0.0000 C   0  0  0  0  0  0  0  0  0  0  0  0
   13.2926    1.3992    0.0000 C   0  0  0  0  0  0  0  0  0  0  0  0
   12.0800    2.0988    0.0000 O   0  0  0  0  0  0  0  0  0  0  0  0
   10.8673    1.3992    0.0000 C   0  0  0  0  0  0  0  0  0  0  0  0
   10.8673    0.0000    0.0000 O   0  0  0  0  0  0  0  0  0  0  0  0
    9.6546    2.0988    0.0000 C   0  0  0  0  0  0  0  0  0  0  0  0
    8.4420    1.3992    0.0000 O   0  0  0  0  0  0  0  0  0  0  0  0
    7.2293    2.0988    0.0000 C   0  0  0  0  0  0  0  0  0  0  0  0
    6.0167    1.3992    0.0000 C   0  0  0  0  0  0  0  0  0  0  0  0
    7.2293    3.4981    0.0000 C   0  0  0  0  0  0  0  0  0  0  0  0
    4.8040    2.0988    0.0000 C   0  0  0  0  0  0  0  0  0  0  0  0
    6.0167    4.1977    0.0000 C   0  0  0  0  0  0  0  0  0  0  0  0
    8.4420    4.1977    0.0000 Cl  0  0  0  0  0  0  0  0  0  0  0  0
    4.8040    3.4981    0.0000 C   0  0  0  0  0  0  0  0  0  0  0  0
    6.0167    5.5969    0.0000 O   0  0  0  0  0  0  0  0  0  0  0  0
    3.5913    4.1977    0.0000 C   0  0  0  0  0  0  0  0  0  0  0  0
    4.8040    6.2965    0.0000 C   0  0  0  0  0  0  0  0  0  0  0  0
    2.3787    3.4981    0.0000 C   0  0  0  0  0  0  0  0  0  0  0  0
    3.5913    5.5969    0.0000 C   0  0  0  0  0  0  0  0  0  0  0  0
    4.8040    7.6957    0.0000 O   0  0  0  0  0  0  0  0  0  0  0  0
    2.3787    6.2965    0.0000 C   0  0  0  0  0  0  0  0  0  0  0  0
    2.3787    7.6957    0.0000 C   0  0  0  0  0  0  0  0  0  0  0  0
    1.1660    8.3953    0.0000 N   0  0  0  0  0  0  0  0  0  0  0  0
    0.0000    7.6957    0.0000 C   0  0  0  0  0  0  0  0  0  0  0  0
    1.1660    9.7946    0.0000 C   0  0  0  0  0  0  0  0  0  0  0  0
    0.0000    6.2965    0.0000 C   0  0  0  0  0  0  0  0  0  0  0  0
    0.0000   10.4475    0.0000 C   0  0  0  0  0  0  0  0  0  0  0  0
  1  2  1  0  0  0  0 
  2  3  1  0  0  0  0 
  3  4  1  0  0  0  0 
  4  5  2  0  0  0  0 
  4  6  1  0  0  0  0 
  6  7  1  0  0  0  0 
  7  8  1  0  0  0  0 
  8  9  1  0  0  0  0 
  8 10  2  0  0  0  0 
  9 11  2  0  0  0  0 
 12 10  1  0  0  0  0 
 10 13  1  0  0  0  0 
 11 14  1  0  0  0  0 
 15 12  1  0  0  0  0 
 14 12  2  0  0  0  0 
 14 16  1  0  0  0  0 
 17 15  1  0  0  0  0 
 16 18  1  0  0  0  0 
 16 19  2  0  0  0  0 
 19 17  1  0  0  0  0 
 17 20  2  0  0  0  0 
 19 21  1  0  0  0  0 
 21 22  1  0  0  0  0 
 22 23  1  0  0  0  0 
 23 24  1  0  0  0  0 
 23 25  1  0  0  0  0 
 24 26  1  0  0  0  0 
 25 27  1  0  0  0  0 
M  END
> <Name>
Acetic acid, ((8-chloro-3-(2-(diethylamino)ethyl)-4-methyl-2-oxo-2H-1-benzopyran-7-yl)oxy)-, ethyl ester

> <Source>
IndexNet2DMolFile

> <Tox>
2.501

> <CAS>
68206-94-0

$$$$

  CDK

 30 32  0  0  0  0  0  0  0  0999 V2000
   -1.3217    0.0978   -2.0364 O   0  0  0  0  0  0  0  0  0  0  0  0
   -1.3279   -1.1309   -1.9401 C   0  0  0  0  0  0  0  0  0  0  0  0
   -2.1129   -1.8852   -2.7783 N   0  0  0  0  0  0  0  0  0  0  0  0
   -0.5744   -1.7887   -0.9672 N   0  0  0  0  0  0  0  0  0  0  0  0
   -2.0802   -3.1749   -2.7159 C   0  0  0  0  0  0  0  0  0  0  0  0
   -0.4448   -3.1393   -0.9301 N   0  0  0  0  0  0  0  0  0  0  0  0
    0.2244   -1.0697    0.0113 C   0  0  0  0  0  0  0  0  0  0  0  0
   -3.0347   -3.9441   -3.5370 C   0  0  0  0  0  0  0  0  0  0  0  0
   -1.1107   -3.8439   -1.7857 C   0  0  0  0  0  0  0  0  0  0  0  0
   -2.6703   -4.3643   -4.8146 C   0  0  0  0  0  0  0  0  0  0  0  0
   -4.2980   -4.2473   -3.0332 C   0  0  0  0  0  0  0  0  0  0  0  0
   -0.8585   -5.2972   -1.8407 C   0  0  0  0  0  0  0  0  0  0  0  0
   -3.5728   -5.0907   -5.5915 C   0  0  0  0  0  0  0  0  0  0  0  0
   -5.2005   -4.9738   -3.8100 C   0  0  0  0  0  0  0  0  0  0  0  0
   -1.6297   -6.1648   -1.0704 C   0  0  0  0  0  0  0  0  0  0  0  0
    0.1504   -5.7962   -2.6616 C   0  0  0  0  0  0  0  0  0  0  0  0
   -4.8378   -5.3955   -5.0891 C   0  0  0  0  0  0  0  0  0  0  0  0
   -1.3911   -7.5382   -1.1215 C   0  0  0  0  0  0  0  0  0  0  0  0
    0.3891   -7.1696   -2.7127 C   0  0  0  0  0  0  0  0  0  0  0  0
   -5.7499   -6.1308   -5.8742 N   0  0  0  0  0  0  0  0  0  0  0  0
   -0.3817   -8.0405   -1.9427 C   0  0  0  0  0  0  0  0  0  0  0  0
   -7.0665   -6.4535   -5.3610 C   0  0  0  0  0  0  0  0  0  0  0  0
   -5.3878   -6.5617   -7.2100 C   0  0  0  0  0  0  0  0  0  0  0  0
   -0.1411   -9.4291   -1.9951 N   0  0  0  0  0  0  0  0  0  0  0  0
   -6.9891   -7.6608   -4.4464 C   0  0  0  0  0  0  0  0  0  0  0  0
   -4.7170   -7.9209   -7.1565 C   0  0  0  0  0  0  0  0  0  0  0  0
    0.9047   -9.9613   -2.8460 C   0  0  0  0  0  0  0  0  0  0  0  0
   -0.9272  -10.3413   -1.1883 C   0  0  0  0  0  0  0  0  0  0  0  0
    0.4123  -10.0641   -4.2767 C   0  0  0  0  0  0  0  0  0  0  0  0
   -0.3950  -10.3740    0.2315 C   0  0  0  0  0  0  0  0  0  0  0  0
  1  2  2  0  0  0  0 
  3  2  1  0  0  0  0 
  4  2  1  0  0  0  0 
  3  5  2  0  0  0  0 
  6  4  1  0  0  0  0 
  4  7  1  0  0  0  0 
  8  5  1  0  0  0  0 
  9  5  1  0  0  0  0 
  6  9  2  0  0  0  0 
  8 10  2  0  0  0  0 
  8 11  1  0  0  0  0 
 12  9  1  0  0  0  0 
 13 10  1  0  0  0  0 
 14 11  2  0  0  0  0 
 12 15  2  0  0  0  0 
 12 16  1  0  0  0  0 
 17 13  2  0  0  0  0 
 17 14  1  0  0  0  0 
 18 15  1  0  0  0  0 
 19 16  2  0  0  0  0 
 20 17  1  0  0  0  0 
 21 18  2  0  0  0  0 
 21 19  1  0  0  0  0 
 20 22  1  0  0  0  0 
 20 23  1  0  0  0  0 
 24 21  1  0  0  0  0 
 22 25  1  0  0  0  0 
 23 26  1  0  0  0  0 
 24 27  1  0  0  0  0 
 24 28  1  0  0  0  0 
 27 29  1  0  0  0  0 
 28 30  1  0  0  0  0 
M  END
> <Name>
as-Triazin-3(2H)-one, 5,6-bis(p-(diethylamino)phenyl)-2-methyl-

> <Source>
Chemidplus3DMolFile

> <Tox>
2.795

> <CAS>
68289-21-4

$$$$

  CDK

 13 12  0  0  0  0  0  0  0  0999 V2000
   -2.0102   -0.1598   -0.2668 C   0  0  0  0  0  0  0  0  0  0  0  0
   -0.9102   -0.2341    0.5055 C   0  0  0  0  0  0  0  0  0  0  0  0
   -3.2465   -1.2819   -0.1380 Cl  0  0  0  0  0  0  0  0  0  0  0  0
   -2.2462    1.0427   -1.4035 Cl  0  0  0  0  0  0  0  0  0  0  0  0
    0.1746    0.7314    0.4347 C   0  0  0  0  0  0  0  0  0  0  0  0
   -0.7514   -1.4789    1.6228 Cl  0  0  0  0  0  0  0  0  0  0  0  0
    1.4782    0.4154    0.2721 C   0  0  0  0  0  0  0  0  0  0  0  0
   -0.2674    2.3540    0.5888 Cl  0  0  0  0  0  0  0  0  0  0  0  0
    1.8934   -0.8895    0.2726 O   0  0  0  0  0  0  0  0  0  0  0  0
    2.6547    1.6453    0.2165 Cl  0  0  0  0  0  0  0  0  0  0  0  0
    2.8391   -1.2398   -0.7577 C   0  0  0  0  0  0  0  0  0  0  0  0
    2.1505   -1.3646   -2.1113 C   0  0  0  0  0  0  0  0  0  0  0  0
    3.4330   -2.5715   -0.3159 C   0  0  0  0  0  0  0  0  0  0  0  0
  1  2  2  0  0  0  0 
  1  3  1  0  0  0  0 
  1  4  1  0  0  0  0 
  2  5  1  0  0  0  0 
  2  6  1  0  0  0  0 
  5  7  2  0  0  0  0 
  5  8  1  0  0  0  0 
  7  9  1  0  0  0  0 
  7 10  1  0  0  0  0 
  9 11  1  0  0  0  0 
 11 12  1  0  0  0  0 
 11 13  1  0  0  0  0 
M  END
> <Name>
1,3-Butadiene, 1,1,2,3,4-pentachloro-4-(1-methylethoxy)-

> <Source>
DougDB3DMolFile

> <Tox>
2.371

> <CAS>
68334-67-8

$$$$

  CDK

 23 24  0  0  0  0  0  0  0  0999 V2000
    8.3511   -7.5764    0.0000 N   0  0  0  0  0  0  0  0  0  0  0  0
    7.0629   -7.3241    0.0000 C   0  0  0  0  0  0  0  0  0  0  0  0
    9.0088   -6.4413    0.0000 C   0  0  0  0  0  0  0  0  0  0  0  0
    6.9007   -5.9908    0.0000 N   0  0  0  0  0  0  0  0  0  0  0  0
    8.1259   -5.4593    0.0000 C   0  0  0  0  0  0  0  0  0  0  0  0
    5.7746   -5.3242    0.0000 C   0  0  0  0  0  0  0  0  0  0  0  0
    5.7746   -3.9909    0.0000 C   0  0  0  0  0  0  0  0  0  0  0  0
    4.6125   -5.9908    0.0000 N   0  0  0  0  0  0  0  0  0  0  0  0
    6.9007   -3.3152    0.0000 O   0  0  0  0  0  0  0  0  0  0  0  0
    3.4594   -5.3242    0.0000 C   0  0  0  0  0  0  0  0  0  0  0  0
    6.9007   -2.0180    0.0000 C   0  0  0  0  0  0  0  0  0  0  0  0
    2.2972   -5.9908    0.0000 C   0  0  0  0  0  0  0  0  0  0  0  0
    3.4594   -3.9909    0.0000 C   0  0  0  0  0  0  0  0  0  0  0  0
    8.0629   -1.3333    0.0000 C   0  0  0  0  0  0  0  0  0  0  0  0
    1.1441   -5.3242    0.0000 C   0  0  0  0  0  0  0  0  0  0  0  0
    2.2972   -7.3241    0.0000 C   0  0  0  0  0  0  0  0  0  0  0  0
    2.2972   -3.3152    0.0000 C   0  0  0  0  0  0  0  0  0  0  0  0
    8.0629   -0.0000    0.0000 C   0  0  0  0  0  0  0  0  0  0  0  0
    1.1441   -3.9909    0.0000 C   0  0  0  0  0  0  0  0  0  0  0  0
    2.2972   -8.6574    0.0000 F   0  0  0  0  0  0  0  0  0  0  0  0
    3.6395   -7.3241    0.0000 F   0  0  0  0  0  0  0  0  0  0  0  0
    0.9639   -7.3241    0.0000 F   0  0  0  0  0  0  0  0  0  0  0  0
    0.0000   -3.3152    0.0000 Cl  0  0  0  0  0  0  0  0  0  0  0  0
  1  2  2  0  0  0  0 
  1  3  1  0  0  0  0 
  4  2  1  0  0  0  0 
  3  5  2  0  0  0  0 
  4  5  1  0  0  0  0 
  4  6  1  0  0  0  0 
  6  7  1  0  0  0  0 
  6  8  2  0  0  0  0 
  7  9  1  0  0  0  0 
  8 10  1  0  0  0  0 
  9 11  1  0  0  0  0 
 10 12  2  0  0  0  0 
 10 13  1  0  0  0  0 
 11 14  1  0  0  0  0 
 12 15  1  0  0  0  0 
 12 16  1  0  0  0  0 
 13 17  2  0  0  0  0 
 14 18  1  0  0  0  0 
 15 19  2  0  0  0  0 
 16 20  1  0  0  0  0 
 16 21  1  0  0  0  0 
 16 22  1  0  0  0  0 
 17 19  1  0  0  0  0 
 19 23  1  0  0  0  0 
M  END
> <Name>
1H-Imidazole, 1-(1-((4-chloro-2-(trifluoromethyl)phenyl)imino)-2-propoxyethyl)-

> <Source>
DSSTox2DMolFile

> <Tox>
2.684

> <CAS>
68694-11-1

$$$$

  CDK

 22 21  0  0  0  0  0  0  0  0999 V2000
    3.6202   -2.9541   -3.1016 S   0  0  0  0  0  0  0  0  0  0  0  0
    1.9696   -2.0542   -2.2625 S   0  0  0  0  0  0  0  0  0  0  0  0
    3.6546   -4.5203   -2.4098 N   0  0  0  0  0  0  0  0  0  0  0  0
    0.6859   -2.4361   -3.3291 N   0  0  0  0  0  0  0  0  0  0  0  0
    4.4095   -4.6582   -1.1722 C   0  0  0  0  0  0  0  0  0  0  0  0
    2.9956   -5.6045   -2.9995 C   0  0  0  0  0  0  0  0  0  0  0  0
    0.4494   -1.4927   -4.4127 C   0  0  0  0  0  0  0  0  0  0  0  0
   -0.0910   -3.5881   -3.1688 C   0  0  0  0  0  0  0  0  0  0  0  0
    2.3428   -5.2704   -4.1613 O   0  0  0  0  0  0  0  0  0  0  0  0
    2.9995   -6.7423   -2.5299 O   0  0  0  0  0  0  0  0  0  0  0  0
    0.2871   -4.3455   -2.0870 O   0  0  0  0  0  0  0  0  0  0  0  0
   -1.0205   -3.8937   -3.9157 O   0  0  0  0  0  0  0  0  0  0  0  0
    1.7164   -6.4118   -4.6763 N   0  0  0  0  0  0  0  0  0  0  0  0
   -0.5422   -5.4703   -2.0082 N   0  0  0  0  0  0  0  0  0  0  0  0
    1.6420   -6.3567   -5.9684 C   0  0  0  0  0  0  0  0  0  0  0  0
   -0.6836   -5.8558   -0.7798 C   0  0  0  0  0  0  0  0  0  0  0  0
    2.2571   -4.9516   -6.8320 S   0  0  0  0  0  0  0  0  0  0  0  0
    1.0277   -7.4187   -6.8433 C   0  0  0  0  0  0  0  0  0  0  0  0
    0.1194   -4.9654    0.5068 S   0  0  0  0  0  0  0  0  0  0  0  0
   -1.5073   -7.0325   -0.3292 C   0  0  0  0  0  0  0  0  0  0  0  0
    0.7585   -4.3488   -7.6396 C   0  0  0  0  0  0  0  0  0  0  0  0
   -1.1573   -3.7475    0.8977 C   0  0  0  0  0  0  0  0  0  0  0  0
  1  2  1  0  0  0  0 
  1  3  1  0  0  0  0 
  2  4  1  0  0  0  0 
  3  5  1  0  0  0  0 
  3  6  1  0  0  0  0 
  4  7  1  0  0  0  0 
  4  8  1  0  0  0  0 
  9  6  1  0  0  0  0 
 10  6  2  0  0  0  0 
 11  8  1  0  0  0  0 
 12  8  2  0  0  0  0 
  9 13  1  0  0  0  0 
 11 14  1  0  0  0  0 
 13 15  2  0  0  0  0 
 14 16  2  0  0  0  0 
 17 15  1  0  0  0  0 
 15 18  1  0  0  0  0 
 19 16  1  0  0  0  0 
 16 20  1  0  0  0  0 
 17 21  1  0  0  0  0 
 19 22  1  0  0  0  0 
M  END
> <Name>
Ethanimidothioic acid, N,N'-(dithiobis((methylimino)carbonyloxy))bis-, dimethyl ester

> <Source>
Chemidplus3DMolFile

> <Tox>
3.308

> <CAS>
68789-90-2

$$$$

  CDK

 19 20  0  0  0  0  0  0  0  0999 V2000
    1.9785   -0.4366    1.7117 O   0  0  0  0  0  0  0  0  0  0  0  0
    2.5518   -0.6397    0.6245 C   0  0  0  0  0  0  0  0  0  0  0  0
    2.0677   -0.0395   -0.6110 C   0  0  0  0  0  0  0  0  0  0  0  0
    3.7829   -1.5369    0.6090 C   0  0  0  0  0  0  0  0  0  0  0  0
    2.9882    0.2559   -1.6169 C   0  0  0  0  0  0  0  0  0  0  0  0
    0.7053    0.2307   -0.7937 C   0  0  0  0  0  0  0  0  0  0  0  0
    2.5259    0.8172   -2.7998 C   0  0  0  0  0  0  0  0  0  0  0  0
    0.2475    0.7978   -1.9850 C   0  0  0  0  0  0  0  0  0  0  0  0
   -0.2896   -0.0886    0.2758 C   0  0  0  0  0  0  0  0  0  0  0  0
    3.3501    1.2112   -3.9909 C   0  0  0  0  0  0  0  0  0  0  0  0
    1.1649    1.0841   -2.9892 C   0  0  0  0  0  0  0  0  0  0  0  0
    2.2609    1.4345   -5.0855 C   0  0  0  0  0  0  0  0  0  0  0  0
    4.2074    2.4442   -3.7252 C   0  0  0  0  0  0  0  0  0  0  0  0
    0.9028    1.7158   -4.3384 C   0  0  0  0  0  0  0  0  0  0  0  0
    2.2290    0.2073   -6.0126 C   0  0  0  0  0  0  0  0  0  0  0  0
    5.0011    2.8289   -4.9730 C   0  0  0  0  0  0  0  0  0  0  0  0
    5.1487    2.2030   -2.5460 C   0  0  0  0  0  0  0  0  0  0  0  0
    0.6775    3.2293   -4.1635 C   0  0  0  0  0  0  0  0  0  0  0  0
   -0.3340    1.1238   -5.0313 C   0  0  0  0  0  0  0  0  0  0  0  0
  1  2  2  0  0  0  0 
  3  2  1  0  0  0  0 
  2  4  1  0  0  0  0 
  5  3  2  0  0  0  0 
  6  3  1  0  0  0  0 
  7  5  1  0  0  0  0 
  8  6  2  0  0  0  0 
  6  9  1  0  0  0  0 
 10  7  1  0  0  0  0 
 11  7  2  0  0  0  0 
 11  8  1  0  0  0  0 
 12 10  1  0  0  0  0 
 10 13  1  0  0  0  0 
 14 11  1  0  0  0  0 
 12 14  1  0  0  0  0 
 12 15  1  0  0  0  0 
 13 16  1  0  0  0  0 
 13 17  1  0  0  0  0 
 14 18  1  0  0  0  0 
 14 19  1  0  0  0  0 
M  END
> <Name>
Ethanone, 1-(2,3-dihydro-1,1,2,6-tetramethyl-3-(1-methylethyl)-1H-inden-5-yl)-, trans-

> <Source>
Chemidplus3DMolFile

> <Tox>
2.066

> <CAS>
68857-95-4

$$$$

  CDK

 20 21  0  0  0  0  0  0  0  0999 V2000
   -0.2646   -3.0056   -2.3669 Cl  0  0  0  0  0  0  0  0  0  0  0  0
   -0.0607   -1.3902   -2.9461 C   0  0  0  0  0  0  0  0  0  0  0  0
    0.9769   -0.5746   -2.4808 C   0  0  0  0  0  0  0  0  0  0  0  0
   -0.9611   -0.9102   -3.8973 C   0  0  0  0  0  0  0  0  0  0  0  0
    1.8851   -1.0587   -1.5210 N   0  0  0  0  0  0  0  0  0  0  0  0
    1.1025    0.7272   -2.9788 C   0  0  0  0  0  0  0  0  0  0  0  0
   -0.8297    0.3883   -4.3892 C   0  0  0  0  0  0  0  0  0  0  0  0
    1.8846   -1.0376   -0.1090 C   0  0  0  0  0  0  0  0  0  0  0  0
    2.3638    1.7789   -2.4407 Cl  0  0  0  0  0  0  0  0  0  0  0  0
    0.2021    1.2070   -3.9301 C   0  0  0  0  0  0  0  0  0  0  0  0
    2.9348   -1.6038    0.6137 C   0  0  0  0  0  0  0  0  0  0  0  0
    0.8176   -0.4410    0.5626 C   0  0  0  0  0  0  0  0  0  0  0  0
    4.0902   -2.2490   -0.0800 C   0  0  0  0  0  0  0  0  0  0  0  0
    2.9180   -1.5734    2.0082 C   0  0  0  0  0  0  0  0  0  0  0  0
    0.8008   -0.4105    1.9570 C   0  0  0  0  0  0  0  0  0  0  0  0
    5.2247   -1.2903   -0.3778 C   0  0  0  0  0  0  0  0  0  0  0  0
    1.8509   -0.9767    2.6799 C   0  0  0  0  0  0  0  0  0  0  0  0
    6.2759   -1.9202   -0.9659 O   0  0  0  0  0  0  0  0  0  0  0  0
    5.2199   -0.0922   -0.1306 O   0  0  0  0  0  0  0  0  0  0  0  0
    1.8340   -0.9468    4.0406 O   0  0  0  0  0  0  0  0  0  0  0  0
  1  2  1  0  0  0  0 
  3  2  2  0  0  0  0 
  2  4  1  0  0  0  0 
  5  3  1  0  0  0  0 
  3  6  1  0  0  0  0 
  4  7  2  0  0  0  0 
  5  8  1  0  0  0  0 
  9  6  1  0  0  0  0 
  6 10  2  0  0  0  0 
 10  7  1  0  0  0  0 
 11  8  2  0  0  0  0 
  8 12  1  0  0  0  0 
 11 13  1  0  0  0  0 
 11 14  1  0  0  0  0 
 12 15  2  0  0  0  0 
 13 16  1  0  0  0  0 
 14 17  2  0  0  0  0 
 17 15  1  0  0  0  0 
 18 16  1  0  0  0  0 
 19 16  2  0  0  0  0 
 20 17  1  0  0  0  0 
M  END
> <Name>
Acetic acid, (2-(2,6-dichloroanilino)-5-hydroxyphenyl)-

> <Source>
Chemidplus3DMolFile

> <Tox>
2.339

> <CAS>
69002-84-2

$$$$

  CDK

 20 21  0  0  0  0  0  0  0  0999 V2000
    0.4804   -2.4218    0.0000 O   0  0  0  0  0  0  0  0  0  0  0  0
    1.1949   -2.0093    0.0000 C   0  0  0  0  0  0  0  0  0  0  0  0
    1.9094   -2.4218    0.0000 O   0  0  0  0  0  0  0  0  0  0  0  0
    1.1949   -1.1843    0.0000 C   0  0  0  0  0  0  0  0  0  0  0  0
    1.1949   -0.3593    0.0000 C   0  0  0  0  0  0  0  0  0  0  0  0
    1.9094    0.0532    0.0000 C   0  0  0  0  0  0  0  0  0  0  0  0
    0.4804    0.0532    0.0000 C   0  0  0  0  0  0  0  0  0  0  0  0
    1.9094    0.8782    0.0000 C   0  0  0  0  0  0  0  0  0  0  0  0
    0.4804    0.8782    0.0000 C   0  0  0  0  0  0  0  0  0  0  0  0
   -0.2340   -0.3593    0.0000 N   0  0  0  0  0  0  0  0  0  0  0  0
    1.1949    1.2907    0.0000 C   0  0  0  0  0  0  0  0  0  0  0  0
   -0.9485    0.0532    0.0000 C   0  0  0  0  0  0  0  0  0  0  0  0
   -0.9485    0.8782    0.0000 C   0  0  0  0  0  0  0  0  0  0  0  0
   -1.6630   -0.3593    0.0000 C   0  0  0  0  0  0  0  0  0  0  0  0
   -0.1235    0.8782    0.0000 Cl  0  0  0  0  0  0  0  0  0  0  0  0
   -1.6630    1.2907    0.0000 C   0  0  0  0  0  0  0  0  0  0  0  0
   -2.3775    0.0532    0.0000 C   0  0  0  0  0  0  0  0  0  0  0  0
   -1.6630   -1.1843    0.0000 Cl  0  0  0  0  0  0  0  0  0  0  0  0
   -1.6630    2.1157    0.0000 O   0  0  0  0  0  0  0  0  0  0  0  0
   -2.3775    0.8782    0.0000 C   0  0  0  0  0  0  0  0  0  0  0  0
  1  2  1  0  0  0  0 
  2  3  2  0  0  0  0 
  2  4  1  0  0  0  0 
  4  5  1  0  0  0  0 
  5  6  1  0  0  0  0 
  5  7  2  0  0  0  0 
  6  8  2  0  0  0  0 
  9  7  1  0  0  0  0 
  7 10  1  0  0  0  0 
  8 11  1  0  0  0  0 
 11  9  2  0  0  0  0 
 10 12  1  0  0  0  0 
 12 13  1  0  0  0  0 
 12 14  2  0  0  0  0 
 13 15  1  0  0  0  0 
 13 16  2  0  0  0  0 
 17 14  1  0  0  0  0 
 14 18  1  0  0  0  0 
 16 19  1  0  0  0  0 
 16 20  1  0  0  0  0 
 20 17  2  0  0  0  0 
M  END
> <Name>
Acetic acid, (o-(2,6-dichloro-3-hydroxyanilino)phenyl)-

> <Source>
Smiles

> <Tox>
2.606

> <CAS>
69002-85-3

$$$$

  CDK

 15 15  0  0  0  0  0  0  0  0999 V2000
    1.7973   -0.9206    4.4284 S   0  0  0  0  0  0  0  0  0  0  0  0
    0.5225   -0.3475    4.8362 O   0  0  0  0  0  0  0  0  0  0  0  0
    2.1831   -2.2341    4.9231 O   0  0  0  0  0  0  0  0  0  0  0  0
    3.0415    0.1908    4.7954 N   0  0  0  0  0  0  0  0  0  0  0  0
    1.8509   -0.9767    2.6799 C   0  0  0  0  0  0  0  0  0  0  0  0
    2.9709    1.5666    4.2828 C   0  0  0  0  0  0  0  0  0  0  0  0
    2.9180   -1.5734    2.0082 C   0  0  0  0  0  0  0  0  0  0  0  0
    0.8008   -0.4105    1.9570 C   0  0  0  0  0  0  0  0  0  0  0  0
    3.6975    2.5391    5.1939 C   0  0  0  0  0  0  0  0  0  0  0  0
    2.9348   -1.6038    0.6137 C   0  0  0  0  0  0  0  0  0  0  0  0
    4.0578   -2.1881    2.7526 C   0  0  0  0  0  0  0  0  0  0  0  0
    0.8176   -0.4410    0.5626 C   0  0  0  0  0  0  0  0  0  0  0  0
    3.0823    2.5349    6.4756 O   0  0  0  0  0  0  0  0  0  0  0  0
    1.8846   -1.0376   -0.1090 C   0  0  0  0  0  0  0  0  0  0  0  0
    1.9011   -1.0688   -1.5191 N   0  0  0  0  0  0  0  0  0  0  0  0
  1  2  2  0  0  0  0 
  1  3  2  0  0  0  0 
  1  4  1  0  0  0  0 
  1  5  1  0  0  0  0 
  4  6  1  0  0  0  0 
  5  7  2  0  0  0  0 
  5  8  1  0  0  0  0 
  6  9  1  0  0  0  0 
  7 10  1  0  0  0  0 
  7 11  1  0  0  0  0 
  8 12  2  0  0  0  0 
 13  9  1  0  0  0  0 
 10 14  2  0  0  0  0 
 14 12  1  0  0  0  0 
 15 14  1  0  0  0  0 
M  END
> <Name>
o-Toluenesulfonamide, 4-amino-N-(2-hydroxyethyl)-

> <Source>
Chemidplus3DMolFile

> <Tox>
1.413

> <CAS>
69226-39-7

$$$$

  CDK

 15 15  0  0  0  0  0  0  0  0999 V2000
    3.4669   -1.9718    0.0000 N   0  0  0  0  0  0  0  0  0  0  0  0
    3.4669   -3.2891    0.0000 C   0  0  0  0  0  0  0  0  0  0  0  0
    2.3113   -1.3334    0.0000 C   0  0  0  0  0  0  0  0  0  0  0  0
    2.3113   -3.9598    0.0000 C   0  0  0  0  0  0  0  0  0  0  0  0
    4.6144   -3.9598    0.0000 O   0  0  0  0  0  0  0  0  0  0  0  0
    1.1718   -1.9880    0.0000 C   0  0  0  0  0  0  0  0  0  0  0  0
    2.3113   -0.0000    0.0000 F   0  0  0  0  0  0  0  0  0  0  0  0
    1.1718   -3.3214    0.0000 C   0  0  0  0  0  0  0  0  0  0  0  0
    2.3113   -5.2933    0.0000 Cl  0  0  0  0  0  0  0  0  0  0  0  0
    5.7701   -3.2891    0.0000 C   0  0  0  0  0  0  0  0  0  0  0  0
    0.0000   -1.3011    0.0000 Cl  0  0  0  0  0  0  0  0  0  0  0  0
    0.0000   -3.9598    0.0000 N   0  0  0  0  0  0  0  0  0  0  0  0
    6.9257   -3.9437    0.0000 C   0  0  0  0  0  0  0  0  0  0  0  0
    8.0813   -3.2729    0.0000 O   0  0  0  0  0  0  0  0  0  0  0  0
    6.9257   -5.2771    0.0000 O   0  0  0  0  0  0  0  0  0  0  0  0
  1  2  1  0  0  0  0 
  1  3  2  0  0  0  0 
  4  2  2  0  0  0  0 
  2  5  1  0  0  0  0 
  6  3  1  0  0  0  0 
  3  7  1  0  0  0  0 
  8  4  1  0  0  0  0 
  4  9  1  0  0  0  0 
  5 10  1  0  0  0  0 
  8  6  2  0  0  0  0 
  6 11  1  0  0  0  0 
  8 12  1  0  0  0  0 
 13 10  1  0  0  0  0 
 13 14  2  0  0  0  0 
 13 15  1  0  0  0  0 
M  END
> <Name>
Acetic acid, ((4-amino-3,5-dichloro-6-fluoro-2-pyridinyl)oxy)-

> <Source>
DSSTox2DMolFile

> <Tox>
2.025

> <CAS>
69377-81-7

$$$$

  CDK

 25 26  0  0  0  0  0  0  0  0999 V2000
   11.2969   -1.1696    0.0000 C   0  0  0  0  0  0  0  0  0  0  0  0
   10.6324   -2.2993    0.0000 C   0  0  0  0  0  0  0  0  0  0  0  0
   12.6260   -1.1696    0.0000 O   0  0  0  0  0  0  0  0  0  0  0  0
   10.6324   -0.0000    0.0000 O   0  0  0  0  0  0  0  0  0  0  0  0
   11.2969   -3.4688    0.0000 C   0  0  0  0  0  0  0  0  0  0  0  0
    9.3033   -2.2993    0.0000 O   0  0  0  0  0  0  0  0  0  0  0  0
   13.2905   -2.2993    0.0000 C   0  0  0  0  0  0  0  0  0  0  0  0
    8.6388   -3.4688    0.0000 C   0  0  0  0  0  0  0  0  0  0  0  0
    9.3033   -4.6118    0.0000 C   0  0  0  0  0  0  0  0  0  0  0  0
    7.3098   -3.4688    0.0000 C   0  0  0  0  0  0  0  0  0  0  0  0
    8.6388   -5.7548    0.0000 C   0  0  0  0  0  0  0  0  0  0  0  0
    6.6452   -4.6118    0.0000 C   0  0  0  0  0  0  0  0  0  0  0  0
    7.3098   -5.7548    0.0000 C   0  0  0  0  0  0  0  0  0  0  0  0
    6.6452   -6.9243    0.0000 O   0  0  0  0  0  0  0  0  0  0  0  0
    5.3162   -6.9243    0.0000 C   0  0  0  0  0  0  0  0  0  0  0  0
    4.6517   -8.0673    0.0000 N   0  0  0  0  0  0  0  0  0  0  0  0
    4.6517   -5.7548    0.0000 C   0  0  0  0  0  0  0  0  0  0  0  0
    3.3226   -8.0673    0.0000 C   0  0  0  0  0  0  0  0  0  0  0  0
    3.3226   -5.7548    0.0000 C   0  0  0  0  0  0  0  0  0  0  0  0
    5.3162   -4.6118    0.0000 Cl  0  0  0  0  0  0  0  0  0  0  0  0
    2.6448   -6.9243    0.0000 C   0  0  0  0  0  0  0  0  0  0  0  0
    1.3290   -6.9243    0.0000 C   0  0  0  0  0  0  0  0  0  0  0  0
    0.0000   -6.9243    0.0000 F   0  0  0  0  0  0  0  0  0  0  0  0
    1.3290   -8.2534    0.0000 F   0  0  0  0  0  0  0  0  0  0  0  0
    1.3290   -5.5820    0.0000 F   0  0  0  0  0  0  0  0  0  0  0  0
  1  2  1  0  0  0  0 
  1  3  1  0  0  0  0 
  1  4  2  0  0  0  0 
  2  5  1  0  0  0  0 
  2  6  1  0  0  0  0 
  3  7  1  0  0  0  0 
  6  8  1  0  0  0  0 
  8  9  2  0  0  0  0 
  8 10  1  0  0  0  0 
  9 11  1  0  0  0  0 
 10 12  2  0  0  0  0 
 11 13  2  0  0  0  0 
 12 13  1  0  0  0  0 
 13 14  1  0  0  0  0 
 14 15  1  0  0  0  0 
 16 15  2  0  0  0  0 
 15 17  1  0  0  0  0 
 16 18  1  0  0  0  0 
 17 19  2  0  0  0  0 
 17 20  1  0  0  0  0 
 18 21  2  0  0  0  0 
 21 19  1  0  0  0  0 
 21 22  1  0  0  0  0 
 22 23  1  0  0  0  0 
 22 24  1  0  0  0  0 
 22 25  1  0  0  0  0 
M  END
> <Name>
Propanoic acid, 2-(4-((3-chloro-5-(trifluoromethyl)-2-pyridinyl)oxy)phenoxy)-, methyl ester

> <Source>
DSSTox2DMolFile

> <Tox>
2.980

> <CAS>
69806-40-2

$$$$

  CDK

 20 23  0  0  0  0  0  0  0  0999 V2000
   -0.7221    2.7209    0.3927 Cl  0  0  0  0  0  0  0  0  0  0  0  0
   -1.6785    1.2877    0.4193 C   0  0  0  0  0  0  0  0  0  0  0  0
   -3.0506    1.3773    0.6590 C   0  0  0  0  0  0  0  0  0  0  0  0
   -1.0691    0.0446    0.1910 C   0  0  0  0  0  0  0  0  0  0  0  0
   -3.8010    0.2085    0.6744 C   0  0  0  0  0  0  0  0  0  0  0  0
   -1.8184   -1.1347    0.2027 C   0  0  0  0  0  0  0  0  0  0  0  0
   -5.2962    0.1552    0.8838 C   0  0  0  0  0  0  0  0  0  0  0  0
   -3.1811   -1.0604    0.4557 C   0  0  0  0  0  0  0  0  0  0  0  0
   -5.3933   -0.9593    1.9600 C   0  0  0  0  0  0  0  0  0  0  0  0
   -6.6787    0.2846    0.2273 C   0  0  0  0  0  0  0  0  0  0  0  0
   -3.9276   -2.2368    0.4446 O   0  0  0  0  0  0  0  0  0  0  0  0
   -5.2437   -2.2095    1.0999 C   0  0  0  0  0  0  0  0  0  0  0  0
   -6.6303   -1.0040    2.8758 C   0  0  0  0  0  0  0  0  0  0  0  0
   -7.0864   -1.1067   -0.3510 C   0  0  0  0  0  0  0  0  0  0  0  0
   -6.3427   -2.2178    0.0819 N   0  0  0  0  0  0  0  0  0  0  0  0
   -5.3357   -3.4588    1.9871 C   0  0  0  0  0  0  0  0  0  0  0  0
   -6.5620   -2.1985    3.7368 N   0  0  0  0  0  0  0  0  0  0  0  0
   -8.0218   -1.2055   -1.1465 O   0  0  0  0  0  0  0  0  0  0  0  0
   -6.5455   -3.4269    2.9271 C   0  0  0  0  0  0  0  0  0  0  0  0
   -7.6843   -2.2184    4.6746 C   0  0  0  0  0  0  0  0  0  0  0  0
  1  2  1  0  0  0  0 
  3  2  2  0  0  0  0 
  2  4  1  0  0  0  0 
  5  3  1  0  0  0  0 
  6  4  2  0  0  0  0 
  7  5  1  0  0  0  0 
  5  8  2  0  0  0  0 
  8  6  1  0  0  0  0 
  9  7  1  0  0  0  0 
  7 10  1  0  0  0  0 
 11  8  1  0  0  0  0 
  9 12  1  0  0  0  0 
  9 13  1  0  0  0  0 
 10 14  1  0  0  0  0 
 11 12  1  0  0  0  0 
 15 12  1  0  0  0  0 
 12 16  1  0  0  0  0 
 17 13  1  0  0  0  0 
 18 14  2  0  0  0  0 
 15 14  1  0  0  0  0 
 16 19  1  0  0  0  0 
 17 19  1  0  0  0  0 
 17 20  1  0  0  0  0 
M  END
> <Name>
4a,10-(Iminoethano)-4aH-(1)benzopyrano(3,2-c)pyridin-12-one, 1,2,3,4,10,10a-hexahydro-8-chloro-2-methyl-, (4a-alpha,10-alpha,10a-alpha)-, (+-)-

> <Source>
Chemidplus3DMolFile

> <Tox>
2.325

> <CAS>
70384-91-7

$$$$

  CDK

 32 31  0  0  0  0  0  0  0  0999 V2000
   -0.1186    0.2849    0.0000 Si  0  0  0  0  0  0  0  0  0  0  0  0
    0.6753    0.0604    0.0000 O   0  0  0  0  0  0  0  0  0  0  0  0
   -0.3431   -0.5089    0.0000 O   0  0  0  0  0  0  0  0  0  0  0  0
   -0.9124    0.5094    0.0000 O   0  0  0  0  0  0  0  0  0  0  0  0
    0.1060    1.0788    0.0000 C   0  0  0  0  0  0  0  0  0  0  0  0
    1.2667    0.6357    0.0000 C   0  0  0  0  0  0  0  0  0  0  0  0
   -1.1428   -0.7114    0.0000 C   0  0  0  0  0  0  0  0  0  0  0  0
   -1.5038   -0.0658    0.0000 C   0  0  0  0  0  0  0  0  0  0  0  0
    1.0642    1.4354    0.0000 O   0  0  0  0  0  0  0  0  0  0  0  0
    2.0605    0.4111    0.0000 C   0  0  0  0  0  0  0  0  0  0  0  0
   -1.7181   -0.1201    0.0000 O   0  0  0  0  0  0  0  0  0  0  0  0
   -1.3674   -1.5053    0.0000 C   0  0  0  0  0  0  0  0  0  0  0  0
   -2.0790    0.5256    0.0000 O   0  0  0  0  0  0  0  0  0  0  0  0
   -1.7063    0.7339    0.0000 C   0  0  0  0  0  0  0  0  0  0  0  0
    2.2850    1.2050    0.0000 C   0  0  0  0  0  0  0  0  0  0  0  0
    2.8544    0.1866    0.0000 C   0  0  0  0  0  0  0  0  0  0  0  0
   -0.5735   -1.7298    0.0000 C   0  0  0  0  0  0  0  0  0  0  0  0
   -1.5919   -2.2992    0.0000 C   0  0  0  0  0  0  0  0  0  0  0  0
   -2.5001    0.9585    0.0000 C   0  0  0  0  0  0  0  0  0  0  0  0
   -1.9088    1.5337    0.0000 C   0  0  0  0  0  0  0  0  0  0  0  0
    2.5096    1.9989    0.0000 C   0  0  0  0  0  0  0  0  0  0  0  0
    3.6483   -0.0379    0.0000 C   0  0  0  0  0  0  0  0  0  0  0  0
    0.2204   -1.9543    0.0000 C   0  0  0  0  0  0  0  0  0  0  0  0
   -1.8164   -3.0930    0.0000 C   0  0  0  0  0  0  0  0  0  0  0  0
   -3.2940    1.1830    0.0000 C   0  0  0  0  0  0  0  0  0  0  0  0
   -1.6843    2.3276    0.0000 C   0  0  0  0  0  0  0  0  0  0  0  0
    4.4421   -0.2624    0.0000 C   0  0  0  0  0  0  0  0  0  0  0  0
   -2.0409   -3.8869    0.0000 C   0  0  0  0  0  0  0  0  0  0  0  0
   -1.4597    3.1214    0.0000 C   0  0  0  0  0  0  0  0  0  0  0  0
    5.2360   -0.4869    0.0000 C   0  0  0  0  0  0  0  0  0  0  0  0
   -2.2654   -4.6808    0.0000 C   0  0  0  0  0  0  0  0  0  0  0  0
   -1.2352    3.9153    0.0000 C   0  0  0  0  0  0  0  0  0  0  0  0
  1  2  1  0  0  0  0 
  1  3  1  0  0  0  0 
  1  4  1  0  0  0  0 
  1  5  1  0  0  0  0 
  2  6  1  0  0  0  0 
  3  7  1  0  0  0  0 
  4  8  1  0  0  0  0 
  6  9  2  0  0  0  0 
  6 10  1  0  0  0  0 
  7 11  2  0  0  0  0 
  7 12  1  0  0  0  0 
  8 13  2  0  0  0  0 
  8 14  1  0  0  0  0 
 10 15  1  0  0  0  0 
 10 16  1  0  0  0  0 
 12 17  1  0  0  0  0 
 12 18  1  0  0  0  0 
 14 19  1  0  0  0  0 
 14 20  1  0  0  0  0 
 15 21  1  0  0  0  0 
 16 22  1  0  0  0  0 
 17 23  1  0  0  0  0 
 18 24  1  0  0  0  0 
 19 25  1  0  0  0  0 
 20 26  1  0  0  0  0 
 22 27  1  0  0  0  0 
 24 28  1  0  0  0  0 
 26 29  1  0  0  0  0 
 27 30  1  0  0  0  0 
 28 31  1  0  0  0  0 
 29 32  1  0  0  0  0 
M  END
> <Name>
Hexanoic acid, 2-ethyl-, methylsilylidyne ester

> <Source>
Smiles

> <Tox>
2.317

> <CAS>
70682-61-0

$$$$

  CDK

 29 28  0  0  0  0  0  0  0  0999 V2000
   10.3811   -3.3254    0.0000 C   0  0  0  0  0  0  0  0  0  0  0  0
    9.2300   -3.9862    0.0000 C   0  0  0  0  0  0  0  0  0  0  0  0
   10.3811   -1.9824    0.0000 O   0  0  0  0  0  0  0  0  0  0  0  0
    9.2300   -5.3291    0.0000 O   0  0  0  0  0  0  0  0  0  0  0  0
   11.5322   -1.3429    0.0000 C   0  0  0  0  0  0  0  0  0  0  0  0
    8.0789   -5.9899    0.0000 C   0  0  0  0  0  0  0  0  0  0  0  0
   12.7046   -1.9824    0.0000 C   0  0  0  0  0  0  0  0  0  0  0  0
   11.5322   -0.0000    0.0000 O   0  0  0  0  0  0  0  0  0  0  0  0
    8.0789   -7.3115    0.0000 C   0  0  0  0  0  0  0  0  0  0  0  0
   13.8557   -1.3429    0.0000 C   0  0  0  0  0  0  0  0  0  0  0  0
    6.9278   -7.9937    0.0000 O   0  0  0  0  0  0  0  0  0  0  0  0
   14.9854   -1.9824    0.0000 C   0  0  0  0  0  0  0  0  0  0  0  0
    6.9278   -9.3366    0.0000 C   0  0  0  0  0  0  0  0  0  0  0  0
   16.1578   -1.3429    0.0000 C   0  0  0  0  0  0  0  0  0  0  0  0
    5.7554   -9.9761    0.0000 C   0  0  0  0  0  0  0  0  0  0  0  0
   17.3089   -1.9824    0.0000 C   0  0  0  0  0  0  0  0  0  0  0  0
    5.7554  -11.3403    0.0000 O   0  0  0  0  0  0  0  0  0  0  0  0
   18.4600   -1.3429    0.0000 C   0  0  0  0  0  0  0  0  0  0  0  0
    4.6043  -11.9798    0.0000 C   0  0  0  0  0  0  0  0  0  0  0  0
    4.6043  -13.3228    0.0000 C   0  0  0  0  0  0  0  0  0  0  0  0
    3.4746  -14.0049    0.0000 O   0  0  0  0  0  0  0  0  0  0  0  0
    3.4746  -15.3265    0.0000 C   0  0  0  0  0  0  0  0  0  0  0  0
    2.3022  -15.9873    0.0000 C   0  0  0  0  0  0  0  0  0  0  0  0
    4.6043  -15.9873    0.0000 O   0  0  0  0  0  0  0  0  0  0  0  0
    2.3022  -17.3089    0.0000 C   0  0  0  0  0  0  0  0  0  0  0  0
    1.1511  -17.9911    0.0000 C   0  0  0  0  0  0  0  0  0  0  0  0
    1.1511  -19.3340    0.0000 C   0  0  0  0  0  0  0  0  0  0  0  0
    0.0000  -19.9735    0.0000 C   0  0  0  0  0  0  0  0  0  0  0  0
    0.0000  -21.3164    0.0000 C   0  0  0  0  0  0  0  0  0  0  0  0
  1  2  1  0  0  0  0 
  1  3  1  0  0  0  0 
  2  4  1  0  0  0  0 
  3  5  1  0  0  0  0 
  4  6  1  0  0  0  0 
  5  7  1  0  0  0  0 
  5  8  2  0  0  0  0 
  6  9  1  0  0  0  0 
  7 10  1  0  0  0  0 
  9 11  1  0  0  0  0 
 10 12  1  0  0  0  0 
 11 13  1  0  0  0  0 
 12 14  1  0  0  0  0 
 13 15  1  0  0  0  0 
 14 16  1  0  0  0  0 
 15 17  1  0  0  0  0 
 16 18  1  0  0  0  0 
 17 19  1  0  0  0  0 
 19 20  1  0  0  0  0 
 20 21  1  0  0  0  0 
 21 22  1  0  0  0  0 
 22 23  1  0  0  0  0 
 22 24  2  0  0  0  0 
 23 25  1  0  0  0  0 
 25 26  1  0  0  0  0 
 26 27  1  0  0  0  0 
 27 28  1  0  0  0  0 
 28 29  1  0  0  0  0 
M  END
> <Name>
Heptanoic acid, oxybis(2,1-ethanediyloxy-2,1-ethanediyl) ester

> <Source>
DSSTox2DMolFile

> <Tox>
1.224

> <CAS>
70729-68-9

$$$$

  CDK

 22 24  0  0  0  0  0  0  0  0999 V2000
    3.8986   -1.8602    4.1874 O   0  0  0  0  0  0  0  0  0  0  0  0
    3.6363   -2.3650    3.0850 C   0  0  0  0  0  0  0  0  0  0  0  0
    4.2047   -3.5347    2.5657 N   0  0  0  0  0  0  0  0  0  0  0  0
    2.6786   -1.6936    2.2173 C   0  0  0  0  0  0  0  0  0  0  0  0
    5.1629   -4.3478    3.1790 C   0  0  0  0  0  0  0  0  0  0  0  0
    1.6236   -0.9544    2.7519 C   0  0  0  0  0  0  0  0  0  0  0  0
    2.8272   -1.7974    0.8342 C   0  0  0  0  0  0  0  0  0  0  0  0
    5.2650   -5.6701    2.9351 N   0  0  0  0  0  0  0  0  0  0  0  0
    6.1208   -4.0182    4.0795 C   0  0  0  0  0  0  0  0  0  0  0  0
    1.4608   -0.8414    4.1002 O   0  0  0  0  0  0  0  0  0  0  0  0
    0.7169   -0.3189    1.9034 C   0  0  0  0  0  0  0  0  0  0  0  0
    1.9205   -1.1620   -0.0142 C   0  0  0  0  0  0  0  0  0  0  0  0
    6.2541   -6.2543    3.6326 N   0  0  0  0  0  0  0  0  0  0  0  0
    4.4807   -6.4391    2.0738 C   0  0  0  0  0  0  0  0  0  0  0  0
    6.7733   -5.2402    4.3298 C   0  0  0  0  0  0  0  0  0  0  0  0
    0.8653   -0.4228    0.5203 C   0  0  0  0  0  0  0  0  0  0  0  0
    3.1595   -6.0783    1.8457 C   0  0  0  0  0  0  0  0  0  0  0  0
    5.0328   -7.5535    1.4565 C   0  0  0  0  0  0  0  0  0  0  0  0
    7.9087   -5.4815    5.2360 C   0  0  0  0  0  0  0  0  0  0  0  0
    2.3758   -6.8461    0.9843 C   0  0  0  0  0  0  0  0  0  0  0  0
    4.2492   -8.3213    0.5951 C   0  0  0  0  0  0  0  0  0  0  0  0
    2.9207   -7.9676    0.3590 C   0  0  0  0  0  0  0  0  0  0  0  0
  1  2  2  0  0  0  0 
  3  2  1  0  0  0  0 
  2  4  1  0  0  0  0 
  3  5  1  0  0  0  0 
  4  6  1  0  0  0  0 
  4  7  2  0  0  0  0 
  8  5  1  0  0  0  0 
  5  9  2  0  0  0  0 
 10  6  1  0  0  0  0 
  6 11  2  0  0  0  0 
  7 12  1  0  0  0  0 
  8 13  1  0  0  0  0 
  8 14  1  0  0  0  0 
  9 15  1  0  0  0  0 
 11 16  1  0  0  0  0 
 12 16  2  0  0  0  0 
 13 15  2  0  0  0  0 
 14 17  2  0  0  0  0 
 14 18  1  0  0  0  0 
 15 19  1  0  0  0  0 
 17 20  1  0  0  0  0 
 18 21  2  0  0  0  0 
 20 22  2  0  0  0  0 
 21 22  1  0  0  0  0 
M  END
> <Name>
Benzamide, 2-hydroxy-N-(3-methyl-1-phenyl-1H-pyrazol-5-yl)-

> <Source>
Chemidplus3DMolFile

> <Tox>
2.346

> <CAS>
70803-10-0

$$$$

  CDK

 19 20  0  0  0  0  0  0  0  0999 V2000
    2.2746   -0.0854   -5.8508 O   0  0  0  0  0  0  0  0  0  0  0  0
    3.2612   -0.9086   -5.3976 C   0  0  0  0  0  0  0  0  0  0  0  0
    1.5481   -0.5162   -6.9999 C   0  0  0  0  0  0  0  0  0  0  0  0
    3.2163   -1.4349   -4.1076 C   0  0  0  0  0  0  0  0  0  0  0  0
    4.3263   -1.2243   -6.2413 C   0  0  0  0  0  0  0  0  0  0  0  0
    0.0822   -0.6695   -6.6291 C   0  0  0  0  0  0  0  0  0  0  0  0
    1.7108    0.5002   -8.1292 C   0  0  0  0  0  0  0  0  0  0  0  0
    2.0653   -1.1025   -3.1756 C   0  0  0  0  0  0  0  0  0  0  0  0
    4.2334   -2.2759   -3.6591 C   0  0  0  0  0  0  0  0  0  0  0  0
    5.3448   -2.0658   -5.7939 C   0  0  0  0  0  0  0  0  0  0  0  0
    1.8581    1.8176   -7.7593 N   0  0  0  0  0  0  0  0  0  0  0  0
    1.6783    0.0216   -9.3382 N   0  0  0  0  0  0  0  0  0  0  0  0
    2.5430   -0.3457   -1.9239 C   0  0  0  0  0  0  0  0  0  0  0  0
    1.2613   -2.3560   -2.7880 C   0  0  0  0  0  0  0  0  0  0  0  0
    5.2983   -2.5916   -4.5029 C   0  0  0  0  0  0  0  0  0  0  0  0
    1.4947   -1.3638   -9.3027 O   0  0  0  0  0  0  0  0  0  0  0  0
    1.3765   -0.0071   -0.9971 C   0  0  0  0  0  0  0  0  0  0  0  0
    0.1002   -2.0090   -1.8576 C   0  0  0  0  0  0  0  0  0  0  0  0
    0.5760   -1.2507   -0.6219 C   0  0  0  0  0  0  0  0  0  0  0  0
  1  2  1  0  0  0  0 
  1  3  1  0  0  0  0 
  4  2  1  0  0  0  0 
  2  5  2  0  0  0  0 
  3  6  1  0  0  0  0 
  3  7  1  0  0  0  0 
  8  4  1  0  0  0  0 
  4  9  2  0  0  0  0 
  5 10  1  0  0  0  0 
 11  7  1  0  0  0  0 
 12  7  2  0  0  0  0 
  8 13  1  0  0  0  0 
  8 14  1  0  0  0  0 
  9 15  1  0  0  0  0 
 15 10  2  0  0  0  0 
 16 12  1  0  0  0  0 
 13 17  1  0  0  0  0 
 14 18  1  0  0  0  0 
 17 19  1  0  0  0  0 
 18 19  1  0  0  0  0 
M  END
> <Name>
Propionaldoxime, 1-amino-2-(o-cyclohexylphenoxy)-

> <Source>
Chemidplus3DMolFile

> <Tox>
3.703

> <CAS>
70907-55-0

$$$$

  CDK

 22 22  0  0  0  0  0  0  0  0999 V2000
    3.4930   -0.3119   -2.8252 Cl  0  0  0  0  0  0  0  0  0  0  0  0
    3.2872   -2.0514   -2.4729 C   0  0  0  0  0  0  0  0  0  0  0  0
    1.6081   -2.5360   -2.8419 Cl  0  0  0  0  0  0  0  0  0  0  0  0
    4.3739   -2.9632   -3.5806 Cl  0  0  0  0  0  0  0  0  0  0  0  0
    3.7605   -2.4521   -0.7562 S   0  0  0  0  0  0  0  0  0  0  0  0
    2.6846   -1.4799    0.1538 N   0  0  0  0  0  0  0  0  0  0  0  0
    1.4329   -1.9619    0.5496 C   0  0  0  0  0  0  0  0  0  0  0  0
    3.1179   -0.1328    0.5017 C   0  0  0  0  0  0  0  0  0  0  0  0
    0.7299   -1.0215    1.2628 O   0  0  0  0  0  0  0  0  0  0  0  0
    0.9994   -3.0846    0.2940 O   0  0  0  0  0  0  0  0  0  0  0  0
   -0.1090   -1.6745    2.1742 N   0  0  0  0  0  0  0  0  0  0  0  0
   -1.1538   -0.9388    2.3628 C   0  0  0  0  0  0  0  0  0  0  0  0
   -2.3751   -1.4518    3.4966 S   0  0  0  0  0  0  0  0  0  0  0  0
   -1.3466    0.3896    1.6689 C   0  0  0  0  0  0  0  0  0  0  0  0
   -3.5146   -0.2004    3.1325 C   0  0  0  0  0  0  0  0  0  0  0  0
   -3.0855    0.9008    1.8672 S   0  0  0  0  0  0  0  0  0  0  0  0
   -1.0487    0.2700    0.1724 C   0  0  0  0  0  0  0  0  0  0  0  0
   -0.4423    1.4396    2.3191 C   0  0  0  0  0  0  0  0  0  0  0  0
   -4.6324   -0.0994    3.7641 N   0  0  0  0  0  0  0  0  0  0  0  0
   -4.7871   -1.0638    4.7102 N   0  0  0  0  0  0  0  0  0  0  0  0
   -4.7978   -0.5446    6.0806 C   0  0  0  0  0  0  0  0  0  0  0  0
   -5.9540   -1.9363    4.5245 C   0  0  0  0  0  0  0  0  0  0  0  0
  1  2  1  0  0  0  0 
  3  2  1  0  0  0  0 
  4  2  1  0  0  0  0 
  5  2  1  0  0  0  0 
  5  6  1  0  0  0  0 
  6  7  1  0  0  0  0 
  6  8  1  0  0  0  0 
  9  7  1  0  0  0  0 
 10  7  2  0  0  0  0 
  9 11  1  0  0  0  0 
 11 12  2  0  0  0  0 
 13 12  1  0  0  0  0 
 14 12  1  0  0  0  0 
 13 15  1  0  0  0  0 
 16 14  1  0  0  0  0 
 14 17  1  0  0  0  0 
 14 18  1  0  0  0  0 
 16 15  1  0  0  0  0 
 19 15  2  0  0  0  0 
 19 20  1  0  0  0  0 
 20 21  1  0  0  0  0 
 20 22  1  0  0  0  0 
M  END
> <Name>
1,3-Dithiolane-2,4-dione, 5,5-dimethyl-, 2-(dimethyhydrazone), 4-(O-((methylethyl((trichloromethyl)thio)amino)carbonyl)oxime)

> <Source>
Chemidplus3DMolFile

> <Tox>
5.085

> <CAS>
71108-14-0

$$$$

  CDK

 23 23  0  0  0  0  0  0  0  0999 V2000
   -3.7504   -9.9378   -3.2145 Cl  0  0  0  0  0  0  0  0  0  0  0  0
   -4.3567  -10.1793   -1.5513 C   0  0  0  0  0  0  0  0  0  0  0  0
   -5.5377   -8.8979   -1.1593 Cl  0  0  0  0  0  0  0  0  0  0  0  0
   -5.2276  -11.7538   -1.5128 Cl  0  0  0  0  0  0  0  0  0  0  0  0
   -2.9926  -10.2553   -0.3409 S   0  0  0  0  0  0  0  0  0  0  0  0
   -2.2464   -8.7271   -0.5379 N   0  0  0  0  0  0  0  0  0  0  0  0
   -2.6502   -7.6222    0.2182 C   0  0  0  0  0  0  0  0  0  0  0  0
   -1.1759   -8.6173   -1.5205 C   0  0  0  0  0  0  0  0  0  0  0  0
   -1.9274   -6.4982   -0.1006 O   0  0  0  0  0  0  0  0  0  0  0  0
   -3.5437   -7.6381    1.0638 O   0  0  0  0  0  0  0  0  0  0  0  0
   -2.3758   -5.4299    0.6860 N   0  0  0  0  0  0  0  0  0  0  0  0
   -1.6883   -4.3815    0.3759 C   0  0  0  0  0  0  0  0  0  0  0  0
   -1.9857   -2.8732    1.2009 S   0  0  0  0  0  0  0  0  0  0  0  0
   -0.5988   -4.4034   -0.6768 C   0  0  0  0  0  0  0  0  0  0  0  0
   -0.8692   -1.9127    0.3021 C   0  0  0  0  0  0  0  0  0  0  0  0
    0.0149   -2.6999   -0.9572 S   0  0  0  0  0  0  0  0  0  0  0  0
    0.5674   -5.2668   -0.1892 C   0  0  0  0  0  0  0  0  0  0  0  0
   -1.1533   -4.9369   -2.0000 C   0  0  0  0  0  0  0  0  0  0  0  0
   -0.6992   -0.6109    0.5636 C   0  0  0  0  0  0  0  0  0  0  0  0
   -1.4519    0.0047    1.6066 C   0  0  0  0  0  0  0  0  0  0  0  0
    0.2337    0.1479   -0.2025 C   0  0  0  0  0  0  0  0  0  0  0  0
   -2.0639    0.5068    2.4553 N   0  0  0  0  0  0  0  0  0  0  0  0
    0.9930    0.7662   -0.8253 N   0  0  0  0  0  0  0  0  0  0  0  0
  1  2  1  0  0  0  0 
  3  2  1  0  0  0  0 
  4  2  1  0  0  0  0 
  5  2  1  0  0  0  0 
  5  6  1  0  0  0  0 
  6  7  1  0  0  0  0 
  6  8  1  0  0  0  0 
  9  7  1  0  0  0  0 
 10  7  2  0  0  0  0 
  9 11  1  0  0  0  0 
 11 12  2  0  0  0  0 
 13 12  1  0  0  0  0 
 14 12  1  0  0  0  0 
 13 15  1  0  0  0  0 
 16 14  1  0  0  0  0 
 14 17  1  0  0  0  0 
 14 18  1  0  0  0  0 
 16 15  1  0  0  0  0 
 15 19  2  0  0  0  0 
 19 20  1  0  0  0  0 
 19 21  1  0  0  0  0 
 22 20  3  0  0  0  0 
 23 21  3  0  0  0  0 
M  END
> <Name>
Propanedinitrile, (4,4-dimethyl-5-((((methyl((trichloromethyl)thio)amino)carbonyl)oxy)imino)-1,3-dithiolan-2-ylidene)-

> <Source>
Chemidplus3DMolFile

> <Tox>
2.904

> <CAS>
71108-21-9

$$$$

  CDK

 15 16  0  0  0  0  0  0  0  0999 V2000
    5.3130   -2.9114    1.0784 S   0  0  0  0  0  0  0  0  0  0  0  0
    4.0846   -2.2361   -0.0822 C   0  0  0  0  0  0  0  0  0  0  0  0
    6.5731   -3.4982   -0.0471 C   0  0  0  0  0  0  0  0  0  0  0  0
    2.8964   -1.6658    0.6098 C   0  0  0  0  0  0  0  0  0  0  0  0
    6.3356   -3.3189   -1.3607 N   0  0  0  0  0  0  0  0  0  0  0  0
    7.7063   -4.0953    0.4593 C   0  0  0  0  0  0  0  0  0  0  0  0
    2.8735   -0.3303    0.9858 C   0  0  0  0  0  0  0  0  0  0  0  0
    1.7892   -2.4606    0.8911 C   0  0  0  0  0  0  0  0  0  0  0  0
    7.3058   -3.7739   -2.1764 C   0  0  0  0  0  0  0  0  0  0  0  0
    8.6239   -4.5183   -0.4806 C   0  0  0  0  0  0  0  0  0  0  0  0
    1.7994    0.1734    1.6088 N   0  0  0  0  0  0  0  0  0  0  0  0
    0.6874   -1.9107    1.5390 C   0  0  0  0  0  0  0  0  0  0  0  0
    8.4553   -4.3730   -1.8114 N   0  0  0  0  0  0  0  0  0  0  0  0
    1.8044    1.4135    1.9482 O   0  0  0  0  0  0  0  0  0  0  0  0
    0.7206   -0.5692    1.8922 C   0  0  0  0  0  0  0  0  0  0  0  0
  1  2  1  0  0  0  0 
  1  3  1  0  0  0  0 
  4  2  1  0  0  0  0 
  5  3  2  0  0  0  0 
  3  6  1  0  0  0  0 
  4  7  2  0  0  0  0 
  4  8  1  0  0  0  0 
  5  9  1  0  0  0  0 
  6 10  2  0  0  0  0 
 11  7  1  0  0  0  0 
  8 12  2  0  0  0  0 
 13  9  2  0  0  0  0 
 13 10  1  0  0  0  0 
 14 11  1  0  0  0  0 
 11 15  2  0  0  0  0 
 12 15  1  0  0  0  0 
M  CHG  1  11   1
M  CHG  1  14  -1
M  END
> <Name>
Pyrimidine, 4-((3-pyridinylmethyl)thio)-, N-oxide

> <Source>
Chemidplus3DMolFile

> <Tox>
1.979

> <CAS>
71208-64-5

$$$$

  CDK

 16 17  0  0  0  0  0  0  0  0999 V2000
    2.2575   -1.2324   -0.5559 O   0  0  0  0  0  0  0  0  0  0  0  0
    2.7980   -0.1345   -0.4204 C   0  0  0  0  0  0  0  0  0  0  0  0
    4.1631    0.1067   -0.5946 N   0  0  0  0  0  0  0  0  0  0  0  0
    1.9620    1.0362   -0.0458 C   0  0  0  0  0  0  0  0  0  0  0  0
    4.7958    1.4441   -0.5090 C   0  0  0  0  0  0  0  0  0  0  0  0
    5.0334   -0.9834   -1.0757 C   0  0  0  0  0  0  0  0  0  0  0  0
    2.5485    2.2180    0.1540 C   0  0  0  0  0  0  0  0  0  0  0  0
    0.5111    0.9606    0.1445 C   0  0  0  0  0  0  0  0  0  0  0  0
    3.8942    2.4656    0.0246 N   0  0  0  0  0  0  0  0  0  0  0  0
    5.3141    1.8409   -1.8985 C   0  0  0  0  0  0  0  0  0  0  0  0
    5.6316   -0.6068   -2.4401 C   0  0  0  0  0  0  0  0  0  0  0  0
    6.0985   -1.3620   -0.0454 C   0  0  0  0  0  0  0  0  0  0  0  0
   -0.2734    1.1695   -0.7781 O   0  0  0  0  0  0  0  0  0  0  0  0
    0.1440    0.6404    1.4304 N   0  0  0  0  0  0  0  0  0  0  0  0
    4.4647    3.7672    0.3501 C   0  0  0  0  0  0  0  0  0  0  0  0
    6.2731    0.7813   -2.4451 C   0  0  0  0  0  0  0  0  0  0  0  0
  1  2  2  0  0  0  0 
  3  2  1  0  0  0  0 
  2  4  1  0  0  0  0 
  3  5  1  0  0  0  0 
  3  6  1  0  0  0  0 
  7  4  2  0  0  0  0 
  4  8  1  0  0  0  0 
  9  5  1  0  0  0  0 
  5 10  1  0  0  0  0 
  6 11  1  0  0  0  0 
  6 12  1  0  0  0  0 
  9  7  1  0  0  0  0 
 13  8  2  0  0  0  0 
 14  8  1  0  0  0  0 
  9 15  1  0  0  0  0 
 10 16  1  0  0  0  0 
 11 16  1  0  0  0  0 
M  END
> <Name>
4H-Pyrido(1,2-a)pyrimidine-3-carboxamide, 1,6,7,8,9,9a-hexahydro-1,6-dimethyl-4-oxo-

> <Source>
Chemidplus3DMolFile

> <Tox>
2.781

> <CAS>
71392-29-5

$$$$

  CDK

 30 32  0  0  0  0  0  0  0  0999 V2000
   -2.2863    0.2716   -6.1181 Cl  0  0  0  0  0  0  0  0  0  0  0  0
   -2.7258    1.1019   -4.6763 C   0  0  0  0  0  0  0  0  0  0  0  0
   -4.0479    1.0753   -4.2321 C   0  0  0  0  0  0  0  0  0  0  0  0
   -1.7603    1.8004   -3.9515 C   0  0  0  0  0  0  0  0  0  0  0  0
   -4.4042    1.7473   -3.0629 C   0  0  0  0  0  0  0  0  0  0  0  0
   -2.1167    2.4724   -2.7824 C   0  0  0  0  0  0  0  0  0  0  0  0
   -3.4387    2.4459   -2.3380 C   0  0  0  0  0  0  0  0  0  0  0  0
   -3.8261    3.1776   -1.0686 C   0  0  0  0  0  0  0  0  0  0  0  0
   -3.7156    2.3482    0.1657 C   0  0  0  0  0  0  0  0  0  0  0  0
   -2.5203    2.3216    0.8841 C   0  0  0  0  0  0  0  0  0  0  0  0
   -4.8083    1.5990    0.6020 C   0  0  0  0  0  0  0  0  0  0  0  0
   -2.4175    1.5458    2.0387 C   0  0  0  0  0  0  0  0  0  0  0  0
   -4.7057    0.8230    1.7565 C   0  0  0  0  0  0  0  0  0  0  0  0
   -3.5103    0.7964    2.4748 C   0  0  0  0  0  0  0  0  0  0  0  0
   -3.4094    0.0355    3.6083 O   0  0  0  0  0  0  0  0  0  0  0  0
   -2.9640   -1.3075    3.4395 C   0  0  0  0  0  0  0  0  0  0  0  0
   -1.5478   -1.2766    2.8370 C   0  0  0  0  0  0  0  0  0  0  0  0
   -2.9564   -1.9795    4.8140 C   0  0  0  0  0  0  0  0  0  0  0  0
   -3.9582   -2.0117    2.5205 C   0  0  0  0  0  0  0  0  0  0  0  0
   -0.7998   -2.6118    2.9482 C   0  0  0  0  0  0  0  0  0  0  0  0
   -3.3198   -2.5132    1.4225 O   0  0  0  0  0  0  0  0  0  0  0  0
   -5.1579   -2.1064    2.7502 O   0  0  0  0  0  0  0  0  0  0  0  0
    0.5562   -2.5443    2.2613 C   0  0  0  0  0  0  0  0  0  0  0  0
   -4.1525   -3.2005    0.4833 C   0  0  0  0  0  0  0  0  0  0  0  0
   -3.5725   -3.0441   -0.8917 C   0  0  0  0  0  0  0  0  0  0  0  0
   -3.4734   -4.1294   -1.7552 C   0  0  0  0  0  0  0  0  0  0  0  0
   -3.1199   -1.8142   -1.3414 C   0  0  0  0  0  0  0  0  0  0  0  0
   -2.9324   -3.9540   -3.0241 C   0  0  0  0  0  0  0  0  0  0  0  0
   -2.5885   -1.6051   -2.5668 N   0  0  0  0  0  0  0  0  0  0  0  0
   -2.5085   -2.6834   -3.3784 C   0  0  0  0  0  0  0  0  0  0  0  0
  1  2  1  0  0  0  0 
  3  2  2  0  0  0  0 
  4  2  1  0  0  0  0 
  5  3  1  0  0  0  0 
  6  4  2  0  0  0  0 
  7  5  2  0  0  0  0 
  7  6  1  0  0  0  0 
  8  7  1  0  0  0  0 
  9  8  1  0  0  0  0 
  9 10  2  0  0  0  0 
  9 11  1  0  0  0  0 
 12 10  1  0  0  0  0 
 13 11  2  0  0  0  0 
 14 12  2  0  0  0  0 
 14 13  1  0  0  0  0 
 15 14  1  0  0  0  0 
 15 16  1  0  0  0  0 
 16 17  1  0  0  0  0 
 16 18  1  0  0  0  0 
 16 19  1  0  0  0  0 
 17 20  1  0  0  0  0 
 21 19  1  0  0  0  0 
 22 19  2  0  0  0  0 
 20 23  1  0  0  0  0 
 21 24  1  0  0  0  0 
 24 25  1  0  0  0  0 
 25 26  1  0  0  0  0 
 25 27  2  0  0  0  0 
 26 28  2  0  0  0  0 
 29 27  1  0  0  0  0 
 28 30  1  0  0  0  0 
 29 30  2  0  0  0  0 
M  END
> <Name>
Pentanoic acid, 2-(4-((4-chlorophenyl)methyl)phenoxy)-2-methyl-, 3-pyridinylmethyl ester, (+-)-

> <Source>
Chemidplus3DMolFile

> <Tox>
1.627

> <CAS>
71548-68-0

$$$$

  CDK

 24 25  0  0  0  0  0  0  0  0999 V2000
    4.5386    1.7456    0.0000 C   0  0  0  0  0  0  0  0  0  0  0  0
    4.9875    0.8479    0.0000 C   0  0  0  0  0  0  0  0  0  0  0  0
    3.4912    1.7456    0.0000 C   0  0  0  0  0  0  0  0  0  0  0  0
    4.5386    0.0000    0.0000 C   0  0  0  0  0  0  0  0  0  0  0  0
    2.9925    0.8479    0.0000 C   0  0  0  0  0  0  0  0  0  0  0  0
    2.9925    2.5935    0.0000 C   0  0  0  0  0  0  0  0  0  0  0  0
    3.5411    0.0000    0.0000 C   0  0  0  0  0  0  0  0  0  0  0  0
    3.4912    3.4413    0.0000 C   0  0  0  0  0  0  0  0  0  0  0  0
    4.5386    3.4413    0.0000 O   0  0  0  0  0  0  0  0  0  0  0  0
    2.9925    4.3391    0.0000 N   0  0  0  0  0  0  0  0  0  0  0  0
    3.4912    5.1869    0.0000 C   0  0  0  0  0  0  0  0  0  0  0  0
    1.9950    4.3391    0.0000 C   0  0  0  0  0  0  0  0  0  0  0  0
    4.5386    5.1869    0.0000 C   0  0  0  0  0  0  0  0  0  0  0  0
    2.9925    6.0348    0.0000 C   0  0  0  0  0  0  0  0  0  0  0  0
    1.4962    5.1869    0.0000 C   0  0  0  0  0  0  0  0  0  0  0  0
    1.4962    3.4413    0.0000 C   0  0  0  0  0  0  0  0  0  0  0  0
    4.9875    6.0348    0.0000 O   0  0  0  0  0  0  0  0  0  0  0  0
    4.9875    4.3391    0.0000 O   0  0  0  0  0  0  0  0  0  0  0  0
    1.9950    6.0348    0.0000 C   0  0  0  0  0  0  0  0  0  0  0  0
    0.5486    5.1869    0.0000 C   0  0  0  0  0  0  0  0  0  0  0  0
    1.9950    2.5935    0.0000 C   0  0  0  0  0  0  0  0  0  0  0  0
    0.5486    3.4413    0.0000 C   0  0  0  0  0  0  0  0  0  0  0  0
    6.0348    6.0348    0.0000 C   0  0  0  0  0  0  0  0  0  0  0  0
    0.0000    4.3391    0.0000 C   0  0  0  0  0  0  0  0  0  0  0  0
  1  2  2  0  0  0  0 
  3  1  1  0  0  0  0 
  2  4  1  0  0  0  0 
  5  3  2  0  0  0  0 
  3  6  1  0  0  0  0 
  4  7  2  0  0  0  0 
  7  5  1  0  0  0  0 
  6  8  1  0  0  0  0 
  8  9  2  0  0  0  0 
  8 10  1  0  0  0  0 
 11 10  1  0  0  0  0 
 10 12  1  0  0  0  0 
 13 11  1  0  0  0  0 
 14 11  1  0  0  0  0 
 15 12  2  0  0  0  0 
 12 16  1  0  0  0  0 
 17 13  1  0  0  0  0 
 18 13  2  0  0  0  0 
 19 15  1  0  0  0  0 
 20 15  1  0  0  0  0 
 21 16  1  0  0  0  0 
 16 22  2  0  0  0  0 
 23 17  1  0  0  0  0 
 24 20  2  0  0  0  0 
 22 24  1  0  0  0  0 
M  END
> <Name>
Alanine, N-(2,6-dimethylphenyl)-N-(phenylacetyl)-, methyl ester, DL-

> <Source>
NIST2DMolFile

> <Tox>
1.889

> <CAS>
71626-11-4

$$$$

  CDK

 39 44  0  0  0  0  0  0  0  0999 V2000
    5.7534    1.9683    0.0000 C   0  0  0  0  0  0  0  0  0  0  0  0
    5.7534    2.8767    0.0000 C   0  0  0  0  0  0  0  0  0  0  0  0
    6.6114    1.5141    0.0000 C   0  0  0  0  0  0  0  0  0  0  0  0
    4.8450    1.4636    0.0000 C   0  0  0  0  0  0  0  0  0  0  0  0
    6.6114    3.3814    0.0000 C   0  0  0  0  0  0  0  0  0  0  0  0
    4.8450    3.3814    0.0000 C   0  0  0  0  0  0  0  0  0  0  0  0
    7.3684    1.9683    0.0000 C   0  0  0  0  0  0  0  0  0  0  0  0
    6.6114    0.5047    0.0000 O   0  0  0  0  0  0  0  0  0  0  0  0
    4.0375    1.9178    0.0000 C   0  0  0  0  0  0  0  0  0  0  0  0
    4.8955    0.4542    0.0000 O   0  0  0  0  0  0  0  0  0  0  0  0
    7.3684    2.8767    0.0000 C   0  0  0  0  0  0  0  0  0  0  0  0
    6.6114    4.3908    0.0000 O   0  0  0  0  0  0  0  0  0  0  0  0
    4.0375    2.8767    0.0000 C   0  0  0  0  0  0  0  0  0  0  0  0
    4.8450    4.3403    0.0000 O   0  0  0  0  0  0  0  0  0  0  0  0
    8.2264    1.5141    0.0000 C   0  0  0  0  0  0  0  0  0  0  0  0
    8.2264    3.3814    0.0000 C   0  0  0  0  0  0  0  0  0  0  0  0
    3.1795    3.3814    0.0000 C   0  0  0  0  0  0  0  0  0  0  0  0
    3.9870    4.8450    0.0000 C   0  0  0  0  0  0  0  0  0  0  0  0
    9.0843    1.9683    0.0000 C   0  0  0  0  0  0  0  0  0  0  0  0
    8.2264    0.5047    0.0000 O   0  0  0  0  0  0  0  0  0  0  0  0
    9.0843    2.8767    0.0000 C   0  0  0  0  0  0  0  0  0  0  0  0
    3.1795    4.3403    0.0000 O   0  0  0  0  0  0  0  0  0  0  0  0
    2.3216    2.8767    0.0000 C   0  0  0  0  0  0  0  0  0  0  0  0
    1.7159    4.2394    0.0000 C   0  0  0  0  0  0  0  0  0  0  0  0
    2.8767    5.6020    0.0000 C   0  0  0  0  0  0  0  0  0  0  0  0
    9.9423    1.5141    0.0000 C   0  0  0  0  0  0  0  0  0  0  0  0
    9.9423    3.3814    0.0000 C   0  0  0  0  0  0  0  0  0  0  0  0
    1.7159    5.1983    0.0000 C   0  0  0  0  0  0  0  0  0  0  0  0
    0.8580    3.7347    0.0000 O   0  0  0  0  0  0  0  0  0  0  0  0
    2.8767    6.5609    0.0000 O   0  0  0  0  0  0  0  0  0  0  0  0
   10.7498    1.9683    0.0000 C   0  0  0  0  0  0  0  0  0  0  0  0
    9.9423    0.5047    0.0000 O   0  0  0  0  0  0  0  0  0  0  0  0
   10.7498    2.8767    0.0000 C   0  0  0  0  0  0  0  0  0  0  0  0
    0.8580    5.7029    0.0000 N   0  0  0  0  0  0  0  0  0  0  0  0
   10.8003    0.0000    0.0000 C   0  0  0  0  0  0  0  0  0  0  0  0
   11.4059    3.4823    0.0000 C   0  0  0  0  0  0  0  0  0  0  0  0
   11.5068    2.3216    0.0000 O   0  0  0  0  0  0  0  0  0  0  0  0
    0.0000    5.1983    0.0000 C   0  0  0  0  0  0  0  0  0  0  0  0
    0.8580    6.7123    0.0000 C   0  0  0  0  0  0  0  0  0  0  0  0
  2  1  2  0  0  0  0 
  3  1  1  0  0  0  0 
  1  4  1  0  0  0  0 
  2  5  1  0  0  0  0 
  6  2  1  0  0  0  0 
  7  3  1  0  0  0  0 
  3  8  2  0  0  0  0 
  4  9  2  0  0  0  0 
  4 10  1  0  0  0  0 
  5 11  1  0  0  0  0 
  5 12  2  0  0  0  0 
  6 13  2  0  0  0  0 
 14  6  1  0  0  0  0 
 11  7  2  0  0  0  0 
 15  7  1  0  0  0  0 
  9 13  1  0  0  0  0 
 11 16  1  0  0  0  0 
 13 17  1  0  0  0  0 
 18 14  1  0  0  0  0 
 19 15  2  0  0  0  0 
 15 20  1  0  0  0  0 
 16 21  2  0  0  0  0 
 22 17  1  0  0  0  0 
 17 23  1  0  0  0  0 
 17 24  1  0  0  0  0 
 18 22  1  0  0  0  0 
 25 18  1  0  0  0  0 
 21 19  1  0  0  0  0 
 26 19  1  0  0  0  0 
 21 27  1  0  0  0  0 
 24 28  1  0  0  0  0 
 24 29  1  0  0  0  0 
 28 25  1  0  0  0  0 
 25 30  1  0  0  0  0 
 31 26  1  0  0  0  0 
 26 32  1  0  0  0  0 
 27 33  1  0  0  0  0 
 28 34  1  0  0  0  0 
 33 31  1  0  0  0  0 
 32 35  1  0  0  0  0 
 33 36  1  0  0  0  0 
 33 37  1  0  0  0  0 
 34 38  1  0  0  0  0 
 34 39  1  0  0  0  0 
M  END
> <Name>
2,6-Epoxy-2H-naphthaceno(1,2-b)oxocin-9,16-dione, 4-(dimethylamino)-3,4,5,6,11,12,13,14-octahydro-3,5,8,10,13-pentahydroxy-11-methoxy-6,13-dimethyl-, (2R-(2alpha,3beta,4alpha,5beta,6alpha,11alpha,13alpha))-

> <Source>
NIST2DMolFile

> <Tox>
2.481

> <CAS>
71628-96-1

$$$$

  CDK

 22 21  0  0  0  0  0  0  0  0999 V2000
    7.1487    0.3360    0.0000 C   0  0  0  0  0  0  0  0  0  0  0  0
    6.5735    0.9273    0.0000 O   0  0  0  0  0  0  0  0  0  0  0  0
    5.7737    0.7249    0.0000 C   0  0  0  0  0  0  0  0  0  0  0  0
    4.9739    0.5224    0.0000 C   0  0  0  0  0  0  0  0  0  0  0  0
    4.1742    0.3199    0.0000 O   0  0  0  0  0  0  0  0  0  0  0  0
    3.5989    0.9112    0.0000 C   0  0  0  0  0  0  0  0  0  0  0  0
    3.8234    1.7051    0.0000 O   0  0  0  0  0  0  0  0  0  0  0  0
    2.7992    0.7087    0.0000 C   0  0  0  0  0  0  0  0  0  0  0  0
    1.9994    0.5062    0.0000 C   0  0  0  0  0  0  0  0  0  0  0  0
    1.1996    0.3037    0.0000 C   0  0  0  0  0  0  0  0  0  0  0  0
    0.3999    0.1012    0.0000 C   0  0  0  0  0  0  0  0  0  0  0  0
   -0.3999   -0.1012    0.0000 C   0  0  0  0  0  0  0  0  0  0  0  0
   -1.1996   -0.3037    0.0000 C   0  0  0  0  0  0  0  0  0  0  0  0
   -1.9994   -0.5062    0.0000 C   0  0  0  0  0  0  0  0  0  0  0  0
   -2.7992   -0.7087    0.0000 C   0  0  0  0  0  0  0  0  0  0  0  0
   -3.5989   -0.9112    0.0000 C   0  0  0  0  0  0  0  0  0  0  0  0
   -3.8234   -1.7051    0.0000 O   0  0  0  0  0  0  0  0  0  0  0  0
   -4.1742   -0.3199    0.0000 O   0  0  0  0  0  0  0  0  0  0  0  0
   -4.9739   -0.5224    0.0000 C   0  0  0  0  0  0  0  0  0  0  0  0
   -5.7737   -0.7249    0.0000 C   0  0  0  0  0  0  0  0  0  0  0  0
   -6.5735   -0.9273    0.0000 O   0  0  0  0  0  0  0  0  0  0  0  0
   -7.1487   -0.3360    0.0000 C   0  0  0  0  0  0  0  0  0  0  0  0
  1  2  1  0  0  0  0 
  2  3  1  0  0  0  0 
  3  4  1  0  0  0  0 
  4  5  1  0  0  0  0 
  5  6  1  0  0  0  0 
  6  7  2  0  0  0  0 
  6  8  1  0  0  0  0 
  8  9  1  0  0  0  0 
  9 10  1  0  0  0  0 
 10 11  1  0  0  0  0 
 11 12  1  0  0  0  0 
 12 13  1  0  0  0  0 
 13 14  1  0  0  0  0 
 14 15  1  0  0  0  0 
 15 16  1  0  0  0  0 
 16 17  2  0  0  0  0 
 16 18  1  0  0  0  0 
 18 19  1  0  0  0  0 
 19 20  1  0  0  0  0 
 20 21  1  0  0  0  0 
 21 22  1  0  0  0  0 
M  END
> <Name>
Decanedioic acid, bis(2-methoxyethyl) ester

> <Source>
Smiles

> <Tox>
1.807

> <CAS>
71850-03-8

$$$$

  CDK

 25 26  0  0  0  0  0  0  0  0999 V2000
    6.5137   -3.1769    0.0000 C   0  0  0  0  0  0  0  0  0  0  0  0
    7.6031   -3.8244    0.0000 C   0  0  0  0  0  0  0  0  0  0  0  0
    5.4014   -3.8244    0.0000 C   0  0  0  0  0  0  0  0  0  0  0  0
    6.5137   -1.8970    0.0000 N   0  0  0  0  0  0  0  0  0  0  0  0
    5.4014   -5.0891    0.0000 C   0  0  0  0  0  0  0  0  0  0  0  0
    4.3044   -3.1769    0.0000 C   0  0  0  0  0  0  0  0  0  0  0  0
    5.4014   -1.2647    0.0000 C   0  0  0  0  0  0  0  0  0  0  0  0
    4.4263   -5.9042    0.0000 O   0  0  0  0  0  0  0  0  0  0  0  0
    6.5594   -5.6224    0.0000 O   0  0  0  0  0  0  0  0  0  0  0  0
    2.3998   -3.8854    0.0000 C   0  0  0  0  0  0  0  0  0  0  0  0
    4.3044   -1.8970    0.0000 C   0  0  0  0  0  0  0  0  0  0  0  0
    5.4014   -0.0000    0.0000 C   0  0  0  0  0  0  0  0  0  0  0  0
    6.6661   -6.8870    0.0000 C   0  0  0  0  0  0  0  0  0  0  0  0
    1.4094   -3.0550    0.0000 C   0  0  0  0  0  0  0  0  0  0  0  0
    2.1636   -5.1272    0.0000 C   0  0  0  0  0  0  0  0  0  0  0  0
    3.1997   -1.2647    0.0000 C   0  0  0  0  0  0  0  0  0  0  0  0
    5.6224   -7.6184    0.0000 C   0  0  0  0  0  0  0  0  0  0  0  0
    0.2209   -3.4892    0.0000 C   0  0  0  0  0  0  0  0  0  0  0  0
    0.9752   -5.5614    0.0000 C   0  0  0  0  0  0  0  0  0  0  0  0
    3.2378   -6.3918    0.0000 Cl  0  0  0  0  0  0  0  0  0  0  0  0
    3.1997   -0.0000    0.0000 O   0  0  0  0  0  0  0  0  0  0  0  0
    2.0951   -1.8970    0.0000 O   0  0  0  0  0  0  0  0  0  0  0  0
    0.0000   -4.7463    0.0000 C   0  0  0  0  0  0  0  0  0  0  0  0
    0.7542   -6.8184    0.0000 Cl  0  0  0  0  0  0  0  0  0  0  0  0
    0.6552   -1.1656    0.0000 C   0  0  0  0  0  0  0  0  0  0  0  0
  1  2  1  0  0  0  0 
  1  3  2  0  0  0  0 
  1  4  1  0  0  0  0 
  3  5  1  0  0  0  0 
  3  6  1  0  0  0  0 
  7  4  1  0  0  0  0 
  5  8  2  0  0  0  0 
  5  9  1  0  0  0  0 
  6 10  1  0  0  0  0 
  6 11  1  0  0  0  0 
 11  7  2  0  0  0  0 
  7 12  1  0  0  0  0 
  9 13  1  0  0  0  0 
 10 14  2  0  0  0  0 
 10 15  1  0  0  0  0 
 11 16  1  0  0  0  0 
 13 17  1  0  0  0  0 
 14 18  1  0  0  0  0 
 19 15  2  0  0  0  0 
 15 20  1  0  0  0  0 
 16 21  2  0  0  0  0 
 16 22  1  0  0  0  0 
 18 23  2  0  0  0  0 
 23 19  1  0  0  0  0 
 19 24  1  0  0  0  0 
 22 25  1  0  0  0  0 
M  END
> <Name>
3,5-Pyridinedicarboxylic acid, 4-(2,3-dichlorophenyl)-1,4-dihydro-2,6-dimethyl-, ethyl methyl ester, (+-)-

> <Source>
DSSTox2DMolFile

> <Tox>
2.563

> <CAS>
72509-76-3

$$$$

  CDK

 23 23  0  0  0  0  0  0  0  0999 V2000
    4.1092    3.4528   -3.7821 S   0  0  0  0  0  0  0  0  0  0  0  0
    5.2474    1.9154   -4.1526 P   0  0  0  0  0  0  0  0  0  0  0  0
    5.1820    1.3040   -5.6591 O   0  0  0  0  0  0  0  0  0  0  0  0
    4.9946    0.5947   -3.2542 O   0  0  0  0  0  0  0  0  0  0  0  0
    6.8487    2.1242   -3.9566 O   0  0  0  0  0  0  0  0  0  0  0  0
    5.3603    2.1610   -6.7743 C   0  0  0  0  0  0  0  0  0  0  0  0
    3.7667    0.2286   -2.7678 C   0  0  0  0  0  0  0  0  0  0  0  0
    7.3777    2.3322   -2.6578 C   0  0  0  0  0  0  0  0  0  0  0  0
    4.7220    1.5265   -8.0006 C   0  0  0  0  0  0  0  0  0  0  0  0
    6.8461    2.4165   -6.9768 C   0  0  0  0  0  0  0  0  0  0  0  0
    2.6781   -0.0458   -3.4867 C   0  0  0  0  0  0  0  0  0  0  0  0
    3.6278    0.1266   -1.3112 C   0  0  0  0  0  0  0  0  0  0  0  0
    8.8793    2.4961   -2.7575 C   0  0  0  0  0  0  0  0  0  0  0  0
    2.6267   -0.0001   -4.8632 O   0  0  0  0  0  0  0  0  0  0  0  0
    1.4134   -0.4308   -2.8031 C   0  0  0  0  0  0  0  0  0  0  0  0
    2.5580   -0.2028   -0.6702 N   0  0  0  0  0  0  0  0  0  0  0  0
    2.9652   -1.2553   -5.4216 C   0  0  0  0  0  0  0  0  0  0  0  0
    0.4179   -0.6792   -3.4845 O   0  0  0  0  0  0  0  0  0  0  0  0
    1.4464   -0.4847   -1.4145 N   0  0  0  0  0  0  0  0  0  0  0  0
    0.2734   -0.8497   -0.6376 C   0  0  0  0  0  0  0  0  0  0  0  0
    0.1848   -2.3517   -0.3884 C   0  0  0  0  0  0  0  0  0  0  0  0
   -1.0634   -2.7433    0.4058 C   0  0  0  0  0  0  0  0  0  0  0  0
   -1.1560   -4.2504    0.5869 C   0  0  0  0  0  0  0  0  0  0  0  0
  1  2  2  0  0  0  0 
  2  3  1  0  0  0  0 
  2  4  1  0  0  0  0 
  2  5  1  0  0  0  0 
  3  6  1  0  0  0  0 
  4  7  1  0  0  0  0 
  5  8  1  0  0  0  0 
  6  9  1  0  0  0  0 
  6 10  1  0  0  0  0 
  7 11  2  0  0  0  0 
  7 12  1  0  0  0  0 
  8 13  1  0  0  0  0 
 14 11  1  0  0  0  0 
 15 11  1  0  0  0  0 
 16 12  2  0  0  0  0 
 14 17  1  0  0  0  0 
 18 15  2  0  0  0  0 
 19 15  1  0  0  0  0 
 19 16  1  0  0  0  0 
 19 20  1  0  0  0  0 
 21 20  1  0  0  0  0 
 21 22  1  0  0  0  0 
 22 23  1  0  0  0  0 
M  END
> <Name>
Phosphorothioic acid, O-(1-butyl-1,6-dihydro-5-methoxy-6-oxo-4-pyridazinyl) O-ethyl O-(1-methylethyl) ester

> <Source>
Chemidplus3DMolFile

> <Tox>
4.219

> <CAS>
72538-13-7

$$$$

  CDK

 22 22  0  0  0  0  0  0  0  0999 V2000
   -2.9089   -1.1066    2.1644 S   0  0  0  0  0  0  0  0  0  0  0  0
   -2.2969   -2.6382    2.3764 N   0  0  0  0  0  0  0  0  0  0  0  0
   -4.3962   -1.0733    3.0145 N   0  0  0  0  0  0  0  0  0  0  0  0
   -0.6702   -2.6196    2.0418 P   0  0  0  0  0  0  0  0  0  0  0  0
   -3.0581   -3.7939    1.9155 C   0  0  0  0  0  0  0  0  0  0  0  0
   -4.3210   -1.3381    4.4438 C   0  0  0  0  0  0  0  0  0  0  0  0
   -5.6112   -0.8072    2.3727 C   0  0  0  0  0  0  0  0  0  0  0  0
   -0.1450   -2.4494    0.1677 S   0  0  0  0  0  0  0  0  0  0  0  0
   -0.0740   -1.4546    3.0161 O   0  0  0  0  0  0  0  0  0  0  0  0
   -0.0929   -3.9528    2.7840 O   0  0  0  0  0  0  0  0  0  0  0  0
   -2.5106   -5.0726    2.5433 C   0  0  0  0  0  0  0  0  0  0  0  0
   -3.0028   -3.8639    0.3927 C   0  0  0  0  0  0  0  0  0  0  0  0
   -5.4687   -0.5865    1.0242 O   0  0  0  0  0  0  0  0  0  0  0  0
   -6.6967   -0.7756    2.9522 O   0  0  0  0  0  0  0  0  0  0  0  0
    1.3070   -1.4939    3.3580 C   0  0  0  0  0  0  0  0  0  0  0  0
    1.2880   -3.9979    3.1255 C   0  0  0  0  0  0  0  0  0  0  0  0
   -6.7258   -0.3297    0.4646 N   0  0  0  0  0  0  0  0  0  0  0  0
    1.6416   -2.8214    4.0260 C   0  0  0  0  0  0  0  0  0  0  0  0
   -6.6290   -0.1164   -0.8097 C   0  0  0  0  0  0  0  0  0  0  0  0
   -5.0608   -0.1609   -1.6101 S   0  0  0  0  0  0  0  0  0  0  0  0
   -7.7926    0.1904   -1.7184 C   0  0  0  0  0  0  0  0  0  0  0  0
   -4.5223    1.5564   -1.4634 C   0  0  0  0  0  0  0  0  0  0  0  0
  1  2  1  0  0  0  0 
  1  3  1  0  0  0  0 
  4  2  1  0  0  0  0 
  2  5  1  0  0  0  0 
  3  6  1  0  0  0  0 
  3  7  1  0  0  0  0 
  8  4  2  0  0  0  0 
  4  9  1  0  0  0  0 
  4 10  1  0  0  0  0 
  5 11  1  0  0  0  0 
  5 12  1  0  0  0  0 
 13  7  1  0  0  0  0 
 14  7  2  0  0  0  0 
  9 15  1  0  0  0  0 
 10 16  1  0  0  0  0 
 13 17  1  0  0  0  0 
 18 15  1  0  0  0  0 
 18 16  1  0  0  0  0 
 17 19  2  0  0  0  0 
 20 19  1  0  0  0  0 
 19 21  1  0  0  0  0 
 20 22  1  0  0  0  0 
M  END
> <Name>
Ethanimidothioic acid, N-(((((1,3,2-dioxaphosphorinan-2-yl(1-methylethyl)amino)thio)methylamino)carbonyl)oxy)-, methyl ester, P-sulfide

> <Source>
Chemidplus3DMolFile

> <Tox>
2.810

> <CAS>
72542-61-1

$$$$

  CDK

 22 24  0  0  0  0  0  0  0  0999 V2000
    8.5353    2.7984    0.0000 C   0  0  0  0  0  0  0  0  0  0  0  0
    7.3226    2.0988    0.0000 C   0  0  0  0  0  0  0  0  0  0  0  0
    7.3226    0.6996    0.0000 C   0  0  0  0  0  0  0  0  0  0  0  0
    6.1099    2.7984    0.0000 C   0  0  0  0  0  0  0  0  0  0  0  0
    6.1099    0.0000    0.0000 O   0  0  0  0  0  0  0  0  0  0  0  0
    8.5353    0.0000    0.0000 O   0  0  0  0  0  0  0  0  0  0  0  0
    4.8973    2.0988    0.0000 C   0  0  0  0  0  0  0  0  0  0  0  0
    6.1099    4.1977    0.0000 C   0  0  0  0  0  0  0  0  0  0  0  0
    3.6846    2.7984    0.0000 C   0  0  0  0  0  0  0  0  0  0  0  0
    4.8973    4.8973    0.0000 C   0  0  0  0  0  0  0  0  0  0  0  0
    3.6846    4.1977    0.0000 C   0  0  0  0  0  0  0  0  0  0  0  0
    5.1305    6.2965    0.0000 C   0  0  0  0  0  0  0  0  0  0  0  0
    2.3787    4.7107    0.0000 O   0  0  0  0  0  0  0  0  0  0  0  0
    4.1510    7.2760    0.0000 C   0  0  0  0  0  0  0  0  0  0  0  0
    6.4364    6.6696    0.0000 O   0  0  0  0  0  0  0  0  0  0  0  0
    1.9589    6.0167    0.0000 C   0  0  0  0  0  0  0  0  0  0  0  0
    2.7518    7.1827    0.0000 C   0  0  0  0  0  0  0  0  0  0  0  0
    0.5597    6.1099    0.0000 C   0  0  0  0  0  0  0  0  0  0  0  0
    2.1455    8.4420    0.0000 C   0  0  0  0  0  0  0  0  0  0  0  0
    0.0000    7.4159    0.0000 C   0  0  0  0  0  0  0  0  0  0  0  0
    0.7463    8.5353    0.0000 C   0  0  0  0  0  0  0  0  0  0  0  0
    0.1399    9.7479    0.0000 C   0  0  0  0  0  0  0  0  0  0  0  0
  1  2  1  0  0  0  0 
  2  3  1  0  0  0  0 
  2  4  1  0  0  0  0 
  3  5  1  0  0  0  0 
  3  6  2  0  0  0  0 
  4  7  2  0  0  0  0 
  4  8  1  0  0  0  0 
  7  9  1  0  0  0  0 
 10  8  2  0  0  0  0 
  9 11  2  0  0  0  0 
 12 10  1  0  0  0  0 
 11 10  1  0  0  0  0 
 11 13  1  0  0  0  0 
 14 12  1  0  0  0  0 
 12 15  2  0  0  0  0 
 13 16  1  0  0  0  0 
 17 14  1  0  0  0  0 
 16 18  2  0  0  0  0 
 16 17  1  0  0  0  0 
 19 17  2  0  0  0  0 
 18 20  1  0  0  0  0 
 21 19  1  0  0  0  0 
 20 21  2  0  0  0  0 
 21 22  1  0  0  0  0 
M  END
> <Name>
Dibenz(b,f)oxepin-2-acetic acid, 10,11-dihydro-alpha,8-dimethyl-11-oxo-, (+-)-

> <Source>
IndexNet2DMolFile

> <Tox>
3.304

> <CAS>
72619-34-2

$$$$

  CDK

 21 23  0  0  0  0  0  0  0  0999 V2000
    3.4384    2.3027    3.2054 O   0  0  0  0  0  0  0  0  0  0  0  0
    2.5580    1.6922    2.3459 C   0  0  0  0  0  0  0  0  0  0  0  0
    4.7640    2.1889    2.8508 C   0  0  0  0  0  0  0  0  0  0  0  0
    2.3140    2.2500    1.0891 C   0  0  0  0  0  0  0  0  0  0  0  0
    1.8759    0.5555    2.7790 C   0  0  0  0  0  0  0  0  0  0  0  0
    5.3137    2.6178    1.6324 C   0  0  0  0  0  0  0  0  0  0  0  0
    5.5890    1.6393    3.8425 C   0  0  0  0  0  0  0  0  0  0  0  0
    3.0448    3.4933    0.6849 C   0  0  0  0  0  0  0  0  0  0  0  0
    1.3907    1.6277    0.2430 C   0  0  0  0  0  0  0  0  0  0  0  0
    0.9571   -0.0553    1.9284 C   0  0  0  0  0  0  0  0  0  0  0  0
    4.5320    3.2752    0.5385 C   0  0  0  0  0  0  0  0  0  0  0  0
    6.6923    2.4479    1.4205 C   0  0  0  0  0  0  0  0  0  0  0  0
    6.9537    1.4799    3.6175 C   0  0  0  0  0  0  0  0  0  0  0  0
    0.7171    0.4778    0.6615 C   0  0  0  0  0  0  0  0  0  0  0  0
    5.1158    3.6790   -0.4670 O   0  0  0  0  0  0  0  0  0  0  0  0
    7.5042    1.8799    2.4049 C   0  0  0  0  0  0  0  0  0  0  0  0
   -0.2672   -0.1790   -0.2470 C   0  0  0  0  0  0  0  0  0  0  0  0
    8.9655    1.7097    2.1580 C   0  0  0  0  0  0  0  0  0  0  0  0
    9.7942    2.9029    2.5908 C   0  0  0  0  0  0  0  0  0  0  0  0
   11.1231    2.6932    2.3970 O   0  0  0  0  0  0  0  0  0  0  0  0
    9.3451    3.9400    3.0591 O   0  0  0  0  0  0  0  0  0  0  0  0
  1  2  1  0  0  0  0 
  1  3  1  0  0  0  0 
  4  2  2  0  0  0  0 
  2  5  1  0  0  0  0 
  6  3  2  0  0  0  0 
  3  7  1  0  0  0  0 
  4  8  1  0  0  0  0 
  4  9  1  0  0  0  0 
  5 10  2  0  0  0  0 
  6 11  1  0  0  0  0 
  6 12  1  0  0  0  0 
  7 13  2  0  0  0  0 
  8 11  1  0  0  0  0 
  9 14  2  0  0  0  0 
 14 10  1  0  0  0  0 
 15 11  2  0  0  0  0 
 12 16  2  0  0  0  0 
 16 13  1  0  0  0  0 
 14 17  1  0  0  0  0 
 16 18  1  0  0  0  0 
 18 19  1  0  0  0  0 
 20 19  1  0  0  0  0 
 21 19  2  0  0  0  0 
M  END
> <Name>
Dibenz(b,f)oxepin-2-acetic acid, 10,11-dihydro-8-methyl-11-oxo-

> <Source>
Chemidplus3DMolFile

> <Tox>
2.937

> <CAS>
72619-36-4

$$$$

  CDK

 27 29  0  0  0  0  0  0  0  0999 V2000
    4.1591   -1.0924    2.9845 O   0  0  0  0  0  0  0  0  0  0  0  0
    5.0965   -0.0908    3.1034 C   0  0  0  0  0  0  0  0  0  0  0  0
    3.0802   -0.7804    2.1939 C   0  0  0  0  0  0  0  0  0  0  0  0
    5.7751    0.5115    2.0322 C   0  0  0  0  0  0  0  0  0  0  0  0
    5.3895    0.2817    4.4231 C   0  0  0  0  0  0  0  0  0  0  0  0
    3.2338   -0.7014    0.8081 C   0  0  0  0  0  0  0  0  0  0  0  0
    1.8333   -0.6118    2.7956 C   0  0  0  0  0  0  0  0  0  0  0  0
    6.7175    1.5151    2.3131 C   0  0  0  0  0  0  0  0  0  0  0  0
    5.5829    0.1401    0.5952 C   0  0  0  0  0  0  0  0  0  0  0  0
    6.3281    1.2762    4.6845 C   0  0  0  0  0  0  0  0  0  0  0  0
    4.5869   -0.9266    0.2069 C   0  0  0  0  0  0  0  0  0  0  0  0
    2.1147   -0.4124    0.0211 C   0  0  0  0  0  0  0  0  0  0  0  0
    0.7250   -0.3254    2.0016 C   0  0  0  0  0  0  0  0  0  0  0  0
    6.9881    1.8962    3.6293 C   0  0  0  0  0  0  0  0  0  0  0  0
    6.2740    0.6789   -0.2691 O   0  0  0  0  0  0  0  0  0  0  0  0
    0.8657   -0.2228    0.6172 C   0  0  0  0  0  0  0  0  0  0  0  0
    7.9805    2.9759    3.9025 C   0  0  0  0  0  0  0  0  0  0  0  0
    9.4040    2.6290    3.4211 C   0  0  0  0  0  0  0  0  0  0  0  0
    7.5579    4.3313    3.3213 C   0  0  0  0  0  0  0  0  0  0  0  0
    6.3392    4.7053    3.8162 O   0  0  0  0  0  0  0  0  0  0  0  0
    8.2169    4.9666    2.5083 O   0  0  0  0  0  0  0  0  0  0  0  0
    5.8247    5.9454    3.3205 C   0  0  0  0  0  0  0  0  0  0  0  0
    4.3093    5.8867    3.3177 C   0  0  0  0  0  0  0  0  0  0  0  0
    3.8873    4.8308    2.4629 O   0  0  0  0  0  0  0  0  0  0  0  0
    2.4708    4.7290    2.4217 C   0  0  0  0  0  0  0  0  0  0  0  0
    2.0833    3.5904    1.4980 C   0  0  0  0  0  0  0  0  0  0  0  0
    2.5699    3.8674    0.1904 O   0  0  0  0  0  0  0  0  0  0  0  0
  1  2  1  0  0  0  0 
  1  3  1  0  0  0  0 
  4  2  2  0  0  0  0 
  2  5  1  0  0  0  0 
  6  3  1  0  0  0  0 
  3  7  2  0  0  0  0 
  4  8  1  0  0  0  0 
  4  9  1  0  0  0  0 
 10  5  2  0  0  0  0 
 11  6  1  0  0  0  0 
  6 12  2  0  0  0  0 
  7 13  1  0  0  0  0 
 14  8  2  0  0  0  0 
 15  9  2  0  0  0  0 
 11  9  1  0  0  0  0 
 14 10  1  0  0  0  0 
 12 16  1  0  0  0  0 
 16 13  2  0  0  0  0 
 17 14  1  0  0  0  0 
 17 18  1  0  0  0  0 
 17 19  1  0  0  0  0 
 20 19  1  0  0  0  0 
 21 19  2  0  0  0  0 
 20 22  1  0  0  0  0 
 22 23  1  0  0  0  0 
 24 23  1  0  0  0  0 
 24 25  1  0  0  0  0 
 25 26  1  0  0  0  0 
 27 26  1  0  0  0  0 
M  END
> <Name>
Dibenz(b,f)oxepin-2-acetic acid, 10,11-dihydro-alpha-methyl-11-oxo-, (2-hydroxyethoxy)ethyl ester, (+-)-

> <Source>
Chemidplus3DMolFile

> <Tox>
3.154

> <CAS>
72619-41-1

$$$$

  CDK

 28 29  0  0  0  0  0  0  0  0999 V2000
    5.3828    3.4423   -2.2627 S   0  0  0  0  0  0  0  0  0  0  0  0
    5.9975    1.6072   -2.4904 P   0  0  0  0  0  0  0  0  0  0  0  0
    7.3683    1.3922   -3.3399 O   0  0  0  0  0  0  0  0  0  0  0  0
    4.9946    0.5947   -3.2542 O   0  0  0  0  0  0  0  0  0  0  0  0
    6.3274    0.7809   -1.1290 O   0  0  0  0  0  0  0  0  0  0  0  0
    8.5346    2.1172   -2.9875 C   0  0  0  0  0  0  0  0  0  0  0  0
    4.4331    0.8576   -4.4765 C   0  0  0  0  0  0  0  0  0  0  0  0
    5.3927    0.3966   -0.2268 C   0  0  0  0  0  0  0  0  0  0  0  0
    9.6470    1.7850   -3.9704 C   0  0  0  0  0  0  0  0  0  0  0  0
    8.9224    1.7769   -1.5566 C   0  0  0  0  0  0  0  0  0  0  0  0
    5.0851    1.0810   -5.6176 C   0  0  0  0  0  0  0  0  0  0  0  0
    2.9685    0.8996   -4.5444 C   0  0  0  0  0  0  0  0  0  0  0  0
    4.9762    1.0939    0.8302 C   0  0  0  0  0  0  0  0  0  0  0  0
    4.7723   -0.9177   -0.4255 C   0  0  0  0  0  0  0  0  0  0  0  0
    6.4579    1.0804   -5.7387 O   0  0  0  0  0  0  0  0  0  0  0  0
    4.3242    1.3534   -6.8674 C   0  0  0  0  0  0  0  0  0  0  0  0
    2.2621    1.1296   -5.5988 N   0  0  0  0  0  0  0  0  0  0  0  0
    5.4488    2.3432    1.1695 O   0  0  0  0  0  0  0  0  0  0  0  0
    3.9353    0.5279    1.7309 C   0  0  0  0  0  0  0  0  0  0  0  0
    3.8680   -1.4528    0.3225 N   0  0  0  0  0  0  0  0  0  0  0  0
    6.9353   -0.2146   -6.0502 C   0  0  0  0  0  0  0  0  0  0  0  0
    4.9444    1.5588   -7.9115 O   0  0  0  0  0  0  0  0  0  0  0  0
    2.9379    1.3557   -6.7657 N   0  0  0  0  0  0  0  0  0  0  0  0
    6.5648    2.2418    2.0332 C   0  0  0  0  0  0  0  0  0  0  0  0
    3.5644    1.1867    2.7032 O   0  0  0  0  0  0  0  0  0  0  0  0
    3.4445   -0.7307    1.4034 N   0  0  0  0  0  0  0  0  0  0  0  0
    2.0892    1.6080   -7.9184 C   0  0  0  0  0  0  0  0  0  0  0  0
    2.4252   -1.3844    2.2074 C   0  0  0  0  0  0  0  0  0  0  0  0
  1  2  2  0  0  0  0 
  2  3  1  0  0  0  0 
  2  4  1  0  0  0  0 
  2  5  1  0  0  0  0 
  3  6  1  0  0  0  0 
  4  7  1  0  0  0  0 
  5  8  1  0  0  0  0 
  6  9  1  0  0  0  0 
  6 10  1  0  0  0  0 
  7 11  2  0  0  0  0 
  7 12  1  0  0  0  0 
  8 13  2  0  0  0  0 
  8 14  1  0  0  0  0 
 15 11  1  0  0  0  0 
 11 16  1  0  0  0  0 
 17 12  2  0  0  0  0 
 18 13  1  0  0  0  0 
 13 19  1  0  0  0  0 
 20 14  2  0  0  0  0 
 15 21  1  0  0  0  0 
 22 16  2  0  0  0  0 
 23 16  1  0  0  0  0 
 23 17  1  0  0  0  0 
 18 24  1  0  0  0  0 
 25 19  2  0  0  0  0 
 26 19  1  0  0  0  0 
 26 20  1  0  0  0  0 
 23 27  1  0  0  0  0 
 26 28  1  0  0  0  0 
M  END
> <Name>
Phosphorothioic acid, O,O-bis(1,6-dihydro-5-methoxy-1-methyl-6-oxo-4-pyridazinyl) O-(1-methylethyl) ester

> <Source>
Chemidplus3DMolFile

> <Tox>
3.636

> <CAS>
73115-70-5

$$$$

  CDK

 20 22  0  0  0  0  0  0  0  0999 V2000
    0.5641   -0.8153    0.0000 C   0  0  0  0  0  0  0  0  0  0  0  0
    1.3891   -0.8153    0.0000 C   0  0  0  0  0  0  0  0  0  0  0  0
    0.1516   -0.1009    0.0000 C   0  0  0  0  0  0  0  0  0  0  0  0
    1.8016   -0.1009    0.0000 C   0  0  0  0  0  0  0  0  0  0  0  0
    0.5641    0.6136    0.0000 C   0  0  0  0  0  0  0  0  0  0  0  0
   -0.6734   -0.1009    0.0000 C   0  0  0  0  0  0  0  0  0  0  0  0
    2.6266   -0.1009    0.0000 S   0  0  0  0  0  0  0  0  0  0  0  0
    1.3891    0.6136    0.0000 C   0  0  0  0  0  0  0  0  0  0  0  0
    0.1516    1.3281    0.0000 O   0  0  0  0  0  0  0  0  0  0  0  0
   -1.1584    0.5666    0.0000 N   0  0  0  0  0  0  0  0  0  0  0  0
   -1.1584   -0.7683    0.0000 N   0  0  0  0  0  0  0  0  0  0  0  0
    3.0391    0.6136    0.0000 O   0  0  0  0  0  0  0  0  0  0  0  0
    3.0391   -0.8153    0.0000 C   0  0  0  0  0  0  0  0  0  0  0  0
    0.5641    2.0426    0.0000 C   0  0  0  0  0  0  0  0  0  0  0  0
   -1.9430    0.3116    0.0000 C   0  0  0  0  0  0  0  0  0  0  0  0
   -1.9430   -0.5134    0.0000 C   0  0  0  0  0  0  0  0  0  0  0  0
   -2.6575    0.7241    0.0000 N   0  0  0  0  0  0  0  0  0  0  0  0
   -2.6575   -0.9259    0.0000 C   0  0  0  0  0  0  0  0  0  0  0  0
   -3.3719    0.3116    0.0000 C   0  0  0  0  0  0  0  0  0  0  0  0
   -3.3719   -0.5134    0.0000 C   0  0  0  0  0  0  0  0  0  0  0  0
  1  2  1  0  0  0  0 
  1  3  2  0  0  0  0 
  2  4  2  0  0  0  0 
  5  3  1  0  0  0  0 
  3  6  1  0  0  0  0 
  4  7  1  0  0  0  0 
  4  8  1  0  0  0  0 
  8  5  2  0  0  0  0 
  5  9  1  0  0  0  0 
  6 10  2  0  0  0  0 
  6 11  1  0  0  0  0 
  7 12  2  0  0  0  0 
  7 13  1  0  0  0  0 
  9 14  1  0  0  0  0 
 10 15  1  0  0  0  0 
 16 11  1  0  0  0  0 
 15 17  1  0  0  0  0 
 15 16  2  0  0  0  0 
 18 16  1  0  0  0  0 
 17 19  2  0  0  0  0 
 20 18  2  0  0  0  0 
 19 20  1  0  0  0  0 
M  END
> <Name>
1H-Imidazo(4,5-b)pyridine, 2-(2-methoxy-4-(methylsulfinyl)phenyl)-

> <Source>
Smiles

> <Tox>
2.960

> <CAS>
73384-60-8

$$$$

  CDK

 52 58  0  0  0  0  0  0  0  0999 V2000
   17.5373  -13.1163   -3.4356 C   0  0  0  0  0  0  0  0  0  0  0  0
   18.8593  -13.1502   -3.4613 C   0  0  0  0  0  0  0  0  0  0  0  0
   16.8351  -14.2550   -3.4911 C   0  0  0  0  0  0  0  0  0  0  0  0
   16.9697  -12.0097   -3.3150 N   0  0  0  0  0  0  0  0  0  0  0  0
   19.4998  -14.2891   -3.4569 C   0  0  0  0  0  0  0  0  0  0  0  0
   15.5076  -14.2834   -3.4564 C   0  0  0  0  0  0  0  0  0  0  0  0
   17.4996  -15.4237   -3.5435 C   0  0  0  0  0  0  0  0  0  0  0  0
   17.1799  -11.2411   -2.3703 C   0  0  0  0  0  0  0  0  0  0  0  0
   18.8350  -15.4281   -3.4428 C   0  0  0  0  0  0  0  0  0  0  0  0
   14.8373  -15.4100   -3.3770 C   0  0  0  0  0  0  0  0  0  0  0  0
   14.8863  -13.3172   -3.4844 O   0  0  0  0  0  0  0  0  0  0  0  0
   16.7990  -16.5276   -3.7028 C   0  0  0  0  0  0  0  0  0  0  0  0
   18.1125  -10.3023   -2.3747 C   0  0  0  0  0  0  0  0  0  0  0  0
   16.4497  -11.4428   -1.2894 C   0  0  0  0  0  0  0  0  0  0  0  0
   19.6019  -16.3990   -3.2775 N   0  0  0  0  0  0  0  0  0  0  0  0
   13.5167  -15.4454   -3.2094 C   0  0  0  0  0  0  0  0  0  0  0  0
   15.5054  -16.5622   -3.4753 C   0  0  0  0  0  0  0  0  0  0  0  0
   17.3068  -17.4612   -4.1369 O   0  0  0  0  0  0  0  0  0  0  0  0
   18.3904   -9.6498   -1.2622 C   0  0  0  0  0  0  0  0  0  0  0  0
   16.7300  -10.7943   -0.1844 C   0  0  0  0  0  0  0  0  0  0  0  0
   19.7761  -16.9285   -2.1666 C   0  0  0  0  0  0  0  0  0  0  0  0
   12.8641  -16.5845   -3.1246 C   0  0  0  0  0  0  0  0  0  0  0  0
   14.8339  -17.7038   -3.3545 C   0  0  0  0  0  0  0  0  0  0  0  0
   17.7438   -9.9414   -0.1472 C   0  0  0  0  0  0  0  0  0  0  0  0
   20.8712  -16.5962   -1.4998 C   0  0  0  0  0  0  0  0  0  0  0  0
   18.9183  -17.7608   -1.6015 C   0  0  0  0  0  0  0  0  0  0  0  0
   13.5277  -17.7168   -3.1859 C   0  0  0  0  0  0  0  0  0  0  0  0
   18.1201   -9.4918    0.8907 O   0  0  0  0  0  0  0  0  0  0  0  0
   21.0581  -17.0056   -0.2598 C   0  0  0  0  0  0  0  0  0  0  0  0
   19.1076  -18.1756   -0.3700 C   0  0  0  0  0  0  0  0  0  0  0  0
   18.4456  -10.1686    1.8215 C   0  0  0  0  0  0  0  0  0  0  0  0
   20.1500  -17.7600    0.3347 C   0  0  0  0  0  0  0  0  0  0  0  0
   17.7555  -10.0884    2.9439 C   0  0  0  0  0  0  0  0  0  0  0  0
   19.4393  -11.0426    1.7348 C   0  0  0  0  0  0  0  0  0  0  0  0
   20.2667  -17.9785    1.5054 O   0  0  0  0  0  0  0  0  0  0  0  0
   18.0416  -10.8828    3.9559 C   0  0  0  0  0  0  0  0  0  0  0  0
   19.7332  -11.8279    2.7511 C   0  0  0  0  0  0  0  0  0  0  0  0
   19.4335  -17.6350    2.2871 C   0  0  0  0  0  0  0  0  0  0  0  0
   19.0404  -11.7452    3.8738 C   0  0  0  0  0  0  0  0  0  0  0  0
   18.4158  -18.4147    2.6140 C   0  0  0  0  0  0  0  0  0  0  0  0
   19.4795  -16.3982    2.7513 C   0  0  0  0  0  0  0  0  0  0  0  0
   19.4063  -12.6642    5.1706 S   0  0  0  0  0  0  0  0  0  0  0  0
   17.4116  -17.9337    3.3191 C   0  0  0  0  0  0  0  0  0  0  0  0
   18.4748  -15.9223    3.4540 C   0  0  0  0  0  0  0  0  0  0  0  0
   19.6605  -11.7575    6.3253 O   0  0  0  0  0  0  0  0  0  0  0  0
   20.6050  -13.5272    4.9681 O   0  0  0  0  0  0  0  0  0  0  0  0
   18.2338  -13.4920    5.5688 O   0  0  0  0  0  0  0  0  0  0  0  0
   17.4262  -16.6776    3.7287 C   0  0  0  0  0  0  0  0  0  0  0  0
   16.1617  -16.0521    4.5448 S   0  0  0  0  0  0  0  0  0  0  0  0
   16.4178  -16.1490    6.0097 O   0  0  0  0  0  0  0  0  0  0  0  0
   14.8968  -16.7682    4.2135 O   0  0  0  0  0  0  0  0  0  0  0  0
   15.9942  -14.6211    4.1635 O   0  0  0  0  0  0  0  0  0  0  0  0
  1  2  2  0  0  0  0 
  1  3  1  0  0  0  0 
  1  4  1  0  0  0  0 
  2  5  1  0  0  0  0 
  6  3  1  0  0  0  0 
  7  3  2  0  0  0  0 
  8  4  1  0  0  0  0 
  5  9  2  0  0  0  0 
 10  6  1  0  0  0  0 
  6 11  2  0  0  0  0 
  9  7  1  0  0  0  0 
  7 12  1  0  0  0  0 
 13  8  1  0  0  0  0 
  8 14  2  0  0  0  0 
  9 15  1  0  0  0  0 
 16 10  1  0  0  0  0 
 17 10  2  0  0  0  0 
 12 17  1  0  0  0  0 
 12 18  2  0  0  0  0 
 19 13  2  0  0  0  0 
 14 20  1  0  0  0  0 
 21 15  1  0  0  0  0 
 22 16  2  0  0  0  0 
 17 23  1  0  0  0  0 
 24 19  1  0  0  0  0 
 24 20  2  0  0  0  0 
 25 21  1  0  0  0  0 
 21 26  2  0  0  0  0 
 27 22  1  0  0  0  0 
 23 27  2  0  0  0  0 
 28 24  1  0  0  0  0 
 29 25  2  0  0  0  0 
 26 30  1  0  0  0  0 
 28 31  1  0  0  0  0 
 32 29  1  0  0  0  0 
 32 30  2  0  0  0  0 
 33 31  1  0  0  0  0 
 31 34  2  0  0  0  0 
 35 32  1  0  0  0  0 
 36 33  2  0  0  0  0 
 34 37  1  0  0  0  0 
 35 38  1  0  0  0  0 
 39 36  1  0  0  0  0 
 39 37  2  0  0  0  0 
 40 38  1  0  0  0  0 
 38 41  2  0  0  0  0 
 39 42  1  0  0  0  0 
 43 40  2  0  0  0  0 
 41 44  1  0  0  0  0 
 42 45  2  0  0  0  0 
 42 46  2  0  0  0  0 
 42 47  1  0  0  0  0 
 48 43  1  0  0  0  0 
 48 44  2  0  0  0  0 
 48 49  1  0  0  0  0 
 49 50  2  0  0  0  0 
 49 51  2  0  0  0  0 
 49 52  1  0  0  0  0 
M  END
> <Name>
Benzenesulfonic acid, 4,4'-(1,4-anthraquinonylenediiminodiphenyl-1,4-enedioxo)-

> <Source>
Chemidplus3DMolFile

> <Tox>
1.934

> <CAS>
73688-63-8

$$$$

  CDK

 31 34  0  0  0  0  0  0  0  0999 V2000
   -8.6521   -2.8231    0.8921 S   0  0  0  0  0  0  0  0  0  0  0  0
   -9.3589   -1.4670    1.4674 O   0  0  0  0  0  0  0  0  0  0  0  0
   -8.9136   -2.8669   -0.5380 O   0  0  0  0  0  0  0  0  0  0  0  0
   -9.0300   -3.9319    1.7525 O   0  0  0  0  0  0  0  0  0  0  0  0
   -6.9347   -2.5718    1.1157 C   0  0  0  0  0  0  0  0  0  0  0  0
   -6.3678   -2.5671    2.3905 C   0  0  0  0  0  0  0  0  0  0  0  0
   -6.1327   -2.3743   -0.0044 C   0  0  0  0  0  0  0  0  0  0  0  0
   -7.1771   -2.7651    3.4747 O   0  0  0  0  0  0  0  0  0  0  0  0
   -4.9886   -2.3640    2.5604 C   0  0  0  0  0  0  0  0  0  0  0  0
   -4.7606   -2.1711    0.1459 C   0  0  0  0  0  0  0  0  0  0  0  0
   -4.1730   -2.1630    1.4215 C   0  0  0  0  0  0  0  0  0  0  0  0
   -4.4010   -2.3562    3.8360 C   0  0  0  0  0  0  0  0  0  0  0  0
   -2.7887   -1.9589    1.5853 C   0  0  0  0  0  0  0  0  0  0  0  0
   -3.0290   -2.1530    3.9863 C   0  0  0  0  0  0  0  0  0  0  0  0
   -1.9319   -1.7546    0.4865 N   0  0  0  0  0  0  0  0  0  0  0  0
   -2.2268   -1.9553    2.8664 C   0  0  0  0  0  0  0  0  0  0  0  0
   -0.5715   -2.0566    0.2669 C   0  0  0  0  0  0  0  0  0  0  0  0
    0.0083   -3.1581    0.8969 C   0  0  0  0  0  0  0  0  0  0  0  0
    0.1912   -1.2560   -0.5782 C   0  0  0  0  0  0  0  0  0  0  0  0
    1.3611   -3.4727    0.6887 C   0  0  0  0  0  0  0  0  0  0  0  0
    1.5366   -1.5537   -0.7965 C   0  0  0  0  0  0  0  0  0  0  0  0
    2.1367   -2.6584   -0.1706 C   0  0  0  0  0  0  0  0  0  0  0  0
    1.9613   -4.5775    1.3145 C   0  0  0  0  0  0  0  0  0  0  0  0
    3.4894   -2.9729   -0.3789 C   0  0  0  0  0  0  0  0  0  0  0  0
    3.3068   -4.8752    1.0961 C   0  0  0  0  0  0  0  0  0  0  0  0
    4.2596   -2.2019   -1.2050 O   0  0  0  0  0  0  0  0  0  0  0  0
    4.0693   -4.0743    0.2511 C   0  0  0  0  0  0  0  0  0  0  0  0
    5.7542   -4.4751   -0.0010 S   0  0  0  0  0  0  0  0  0  0  0  0
    6.5904   -3.2937    0.7569 O   0  0  0  0  0  0  0  0  0  0  0  0
    6.0283   -5.7148    0.7086 O   0  0  0  0  0  0  0  0  0  0  0  0
    6.0033   -4.3634   -1.4286 O   0  0  0  0  0  0  0  0  0  0  0  0
  1  2  1  0  0  0  0 
  1  3  2  0  0  0  0 
  1  4  2  0  0  0  0 
  1  5  1  0  0  0  0 
  6  5  2  0  0  0  0 
  5  7  1  0  0  0  0 
  8  6  1  0  0  0  0 
  9  6  1  0  0  0  0 
 10  7  2  0  0  0  0 
 11  9  2  0  0  0  0 
  9 12  1  0  0  0  0 
 11 10  1  0  0  0  0 
 11 13  1  0  0  0  0 
 12 14  2  0  0  0  0 
 15 13  1  0  0  0  0 
 13 16  2  0  0  0  0 
 16 14  1  0  0  0  0 
 15 17  1  0  0  0  0 
 17 18  2  0  0  0  0 
 17 19  1  0  0  0  0 
 20 18  1  0  0  0  0 
 21 19  2  0  0  0  0 
 20 22  2  0  0  0  0 
 20 23  1  0  0  0  0 
 22 21  1  0  0  0  0 
 22 24  1  0  0  0  0 
 23 25  2  0  0  0  0 
 26 24  1  0  0  0  0 
 24 27  2  0  0  0  0 
 27 25  1  0  0  0  0 
 28 27  1  0  0  0  0 
 28 29  1  0  0  0  0 
 28 30  2  0  0  0  0 
 28 31  2  0  0  0  0 
M  END
> <Name>
2-Naphthalenesulfonic acid, 5,6'-iminobis(1-hydroxy-

> <Source>
Chemidplus3DMolFile

> <Tox>
1.623

> <CAS>
73816-77-0

$$$$

  CDK

 15 14  0  0  0  0  0  0  0  0999 V2000
    0.7521    7.7137   -4.5914 S   0  0  0  0  0  0  0  0  0  0  0  0
    0.2522    5.7012   -4.9505 P   0  0  0  0  0  0  0  0  0  0  0  0
    1.3439    8.3459   -6.1736 C   0  0  0  0  0  0  0  0  0  0  0  0
    1.5856    4.8510   -5.3319 O   0  0  0  0  0  0  0  0  0  0  0  0
   -0.7684    5.6289   -6.0584 O   0  0  0  0  0  0  0  0  0  0  0  0
   -0.3271    5.0092   -3.4860 N   0  0  0  0  0  0  0  0  0  0  0  0
    2.6873    4.8159   -4.4414 C   0  0  0  0  0  0  0  0  0  0  0  0
   -0.7156    3.6850   -3.3982 C   0  0  0  0  0  0  0  0  0  0  0  0
   -0.6676    2.8786   -4.3249 O   0  0  0  0  0  0  0  0  0  0  0  0
   -1.1913    3.2869   -2.0184 C   0  0  0  0  0  0  0  0  0  0  0  0
   -0.4095    2.1470   -1.4167 C   0  0  0  0  0  0  0  0  0  0  0  0
   -0.9503    1.8248   -0.2050 O   0  0  0  0  0  0  0  0  0  0  0  0
    0.5611    1.6130   -1.9361 O   0  0  0  0  0  0  0  0  0  0  0  0
   -0.2991    0.7609    0.4968 C   0  0  0  0  0  0  0  0  0  0  0  0
   -1.0132    0.5275    1.8110 C   0  0  0  0  0  0  0  0  0  0  0  0
  1  2  1  0  0  0  0 
  1  3  1  0  0  0  0 
  2  4  1  0  0  0  0 
  2  5  2  0  0  0  0 
  2  6  1  0  0  0  0 
  4  7  1  0  0  0  0 
  6  8  1  0  0  0  0 
  9  8  2  0  0  0  0 
 10  8  1  0  0  0  0 
 10 11  1  0  0  0  0 
 12 11  1  0  0  0  0 
 13 11  2  0  0  0  0 
 12 14  1  0  0  0  0 
 14 15  1  0  0  0  0 
M  END
> <Name>
Propanoic acid, 3-((methoxy(methylthio)phosphinyl)amino)-3-oxo-, ethyl ester

> <Source>
Chemidplus3DMolFile

> <Tox>
3.310

> <CAS>
73937-08-3

$$$$

  CDK

 17 16  0  0  0  0  0  0  0  0999 V2000
    8.1831    1.0273   -2.1679 Cl  0  0  0  0  0  0  0  0  0  0  0  0
    6.5843    1.3012   -1.6198 C   0  0  0  0  0  0  0  0  0  0  0  0
    5.5415    1.4285   -2.4451 C   0  0  0  0  0  0  0  0  0  0  0  0
    4.1377    1.6817   -1.9701 C   0  0  0  0  0  0  0  0  0  0  0  0
    3.1592    0.5272   -2.2905 C   0  0  0  0  0  0  0  0  0  0  0  0
    3.5281   -0.8035   -1.5873 C   0  0  0  0  0  0  0  0  0  0  0  0
    3.0141    0.3099   -3.8157 C   0  0  0  0  0  0  0  0  0  0  0  0
    3.6337   -0.7265   -0.0598 C   0  0  0  0  0  0  0  0  0  0  0  0
    2.5102    1.5510   -4.5650 C   0  0  0  0  0  0  0  0  0  0  0  0
    4.0791   -2.0698    0.5250 C   0  0  0  0  0  0  0  0  0  0  0  0
    2.3860    1.3408   -6.0769 C   0  0  0  0  0  0  0  0  0  0  0  0
    4.1707   -2.0698    2.0538 C   0  0  0  0  0  0  0  0  0  0  0  0
    1.9059    2.5313   -6.7681 N   0  0  0  0  0  0  0  0  0  0  0  0
    5.0895   -1.0070    2.6669 C   0  0  0  0  0  0  0  0  0  0  0  0
    6.5469   -1.0339    2.1969 C   0  0  0  0  0  0  0  0  0  0  0  0
    7.3952    0.0954    2.7814 C   0  0  0  0  0  0  0  0  0  0  0  0
    8.8287    0.0274    2.2769 C   0  0  0  0  0  0  0  0  0  0  0  0
  1  2  1  0  0  0  0 
  3  2  2  0  0  0  0 
  4  3  1  0  0  0  0 
  5  4  1  0  0  0  0 
  5  6  1  0  0  0  0 
  5  7  1  0  0  0  0 
  6  8  1  0  0  0  0 
  7  9  1  0  0  0  0 
  8 10  1  0  0  0  0 
  9 11  1  0  0  0  0 
 10 12  1  0  0  0  0 
 13 11  1  0  0  0  0 
 12 14  1  0  0  0  0 
 14 15  1  0  0  0  0 
 15 16  1  0  0  0  0 
 16 17  1  0  0  0  0 
M  END
> <Name>
Dodecylamine, 4-chloroallyl-

> <Source>
Chemidplus3DMolFile

> <Tox>
2.294

> <CAS>
73986-86-4

$$$$

  CDK

 37 39  0  0  0  0  0  0  0  0999 V2000
   18.9840  -14.7311    0.6519 C   0  0  0  0  0  0  0  0  0  0  0  0
   19.7227  -13.5737    0.8118 C   0  0  0  0  0  0  0  0  0  0  0  0
   17.6145  -14.7735    1.0410 C   0  0  0  0  0  0  0  0  0  0  0  0
   19.5540  -15.9284    1.1935 C   0  0  0  0  0  0  0  0  0  0  0  0
   18.9954  -14.8490   -0.5657 O   0  0  0  0  0  0  0  0  0  0  0  0
   21.0132  -13.5581    0.7266 C   0  0  0  0  0  0  0  0  0  0  0  0
   19.1581  -12.4141    0.8617 C   0  0  0  0  0  0  0  0  0  0  0  0
   17.4321  -14.8975    2.4185 C   0  0  0  0  0  0  0  0  0  0  0  0
   19.3262  -16.0998    2.5755 C   0  0  0  0  0  0  0  0  0  0  0  0
   18.5658  -14.2752   -1.4523 C   0  0  0  0  0  0  0  0  0  0  0  0
   21.6903  -12.4751    0.6545 C   0  0  0  0  0  0  0  0  0  0  0  0
   19.8167  -11.3220    0.7662 C   0  0  0  0  0  0  0  0  0  0  0  0
   18.0017  -16.0438    2.8743 N   0  0  0  0  0  0  0  0  0  0  0  0
   19.2149  -14.2909   -2.5847 C   0  0  0  0  0  0  0  0  0  0  0  0
   17.6598  -13.6320   -1.4047 O   0  0  0  0  0  0  0  0  0  0  0  0
   21.0877  -11.3495    0.6520 C   0  0  0  0  0  0  0  0  0  0  0  0
   17.6843  -16.3953    4.1481 C   0  0  0  0  0  0  0  0  0  0  0  0
   20.3435  -15.1268   -2.5879 C   0  0  0  0  0  0  0  0  0  0  0  0
   21.8847  -10.0428    0.4968 Cl  0  0  0  0  0  0  0  0  0  0  0  0
   16.3161  -16.6662    4.3471 C   0  0  0  0  0  0  0  0  0  0  0  0
   21.0165  -15.0616   -3.8059 C   0  0  0  0  0  0  0  0  0  0  0  0
   15.9017  -16.8816    5.6766 C   0  0  0  0  0  0  0  0  0  0  0  0
   22.1069  -15.9383   -3.8229 C   0  0  0  0  0  0  0  0  0  0  0  0
   14.5767  -16.8837    5.7915 C   0  0  0  0  0  0  0  0  0  0  0  0
   22.7456  -15.8754   -5.0653 C   0  0  0  0  0  0  0  0  0  0  0  0
   13.8212  -15.9140    5.4478 C   0  0  0  0  0  0  0  0  0  0  0  0
   14.1178  -17.8239    6.1698 O   0  0  0  0  0  0  0  0  0  0  0  0
   23.8354  -16.7510   -5.1361 C   0  0  0  0  0  0  0  0  0  0  0  0
   14.2016  -14.6828    5.5149 C   0  0  0  0  0  0  0  0  0  0  0  0
   12.6462  -16.1340    4.9639 C   0  0  0  0  0  0  0  0  0  0  0  0
   24.4569  -16.6754   -6.3907 C   0  0  0  0  0  0  0  0  0  0  0  0
   13.4618  -13.7234    5.1043 C   0  0  0  0  0  0  0  0  0  0  0  0
   11.8968  -15.1815    4.5547 C   0  0  0  0  0  0  0  0  0  0  0  0
   25.5554  -17.5413   -6.4967 C   0  0  0  0  0  0  0  0  0  0  0  0
   12.3057  -13.9731    4.6226 C   0  0  0  0  0  0  0  0  0  0  0  0
   26.1722  -17.4601   -7.7508 C   0  0  0  0  0  0  0  0  0  0  0  0
   11.6166  -13.0878    4.2383 F   0  0  0  0  0  0  0  0  0  0  0  0
  1  2  1  0  0  0  0 
  1  3  1  0  0  0  0 
  1  4  1  0  0  0  0 
  1  5  1  0  0  0  0 
  2  6  2  0  0  0  0 
  2  7  1  0  0  0  0 
  3  8  1  0  0  0  0 
  4  9  1  0  0  0  0 
  5 10  1  0  0  0  0 
  6 11  1  0  0  0  0 
  7 12  2  0  0  0  0 
  8 13  1  0  0  0  0 
  9 13  1  0  0  0  0 
 10 14  1  0  0  0  0 
 10 15  2  0  0  0  0 
 11 16  2  0  0  0  0 
 12 16  1  0  0  0  0 
 13 17  1  0  0  0  0 
 14 18  1  0  0  0  0 
 16 19  1  0  0  0  0 
 17 20  1  0  0  0  0 
 18 21  1  0  0  0  0 
 20 22  1  0  0  0  0 
 21 23  1  0  0  0  0 
 22 24  1  0  0  0  0 
 23 25  1  0  0  0  0 
 24 26  1  0  0  0  0 
 24 27  2  0  0  0  0 
 25 28  1  0  0  0  0 
 26 29  1  0  0  0  0 
 26 30  2  0  0  0  0 
 28 31  1  0  0  0  0 
 29 32  2  0  0  0  0 
 30 33  1  0  0  0  0 
 31 34  1  0  0  0  0 
 32 35  1  0  0  0  0 
 33 35  2  0  0  0  0 
 34 36  1  0  0  0  0 
 35 37  1  0  0  0  0 
M  END
> <Name>
Decanoic acid, 4-(4-chlorophenyl)-1-(4-(4-fluorophenyl)-4-oxobutyl)-4-piperidinyl ester

> <Source>
Chemidplus3DMolFile

> <Tox>
2.490

> <CAS>
74050-97-8

$$$$

  CDK

 14 15  0  0  0  0  0  0  0  0999 V2000
    1.8032   -0.7191    4.4903 S   0  0  0  0  0  0  0  0  0  0  0  0
    1.8736   -0.8516    2.7066 C   0  0  0  0  0  0  0  0  0  0  0  0
    0.2830   -1.6436    4.7937 C   0  0  0  0  0  0  0  0  0  0  0  0
    2.9471   -1.4565    2.0530 C   0  0  0  0  0  0  0  0  0  0  0  0
    0.8129   -0.3274    1.9678 C   0  0  0  0  0  0  0  0  0  0  0  0
    0.3943   -3.0780    4.3559 C   0  0  0  0  0  0  0  0  0  0  0  0
    4.0395   -1.9988    2.7680 N   0  0  0  0  0  0  0  0  0  0  0  0
    2.9600   -1.5372    0.6605 C   0  0  0  0  0  0  0  0  0  0  0  0
    0.8258   -0.4081    0.5753 C   0  0  0  0  0  0  0  0  0  0  0  0
    1.3372   -3.8865    4.8721 N   0  0  0  0  0  0  0  0  0  0  0  0
   -0.4350   -3.5725    3.4600 N   0  0  0  0  0  0  0  0  0  0  0  0
    1.8994   -1.0130   -0.0784 C   0  0  0  0  0  0  0  0  0  0  0  0
    1.0643   -4.9942    4.2302 C   0  0  0  0  0  0  0  0  0  0  0  0
    0.0200   -4.8939    3.3666 O   0  0  0  0  0  0  0  0  0  0  0  0
  1  2  1  0  0  0  0 
  1  3  1  0  0  0  0 
  2  4  1  0  0  0  0 
  2  5  2  0  0  0  0 
  3  6  1  0  0  0  0 
  7  4  1  0  0  0  0 
  4  8  2  0  0  0  0 
  5  9  1  0  0  0  0 
 10  6  1  0  0  0  0 
 11  6  2  0  0  0  0 
  8 12  1  0  0  0  0 
  9 12  2  0  0  0  0 
 10 13  2  0  0  0  0 
 14 11  1  0  0  0  0 
 14 13  1  0  0  0  0 
M  END
> <Name>
Benzenamine, 2-((1,2,4-oxadiazol-3-ylmethyl)thio)-

> <Source>
Chemidplus3DMolFile

> <Tox>
3.417

> <CAS>
74088-83-8

$$$$

  CDK

 25 26  0  0  0  0  0  0  0  0999 V2000
    0.2590    1.1100    0.0000 O   0  0  0  0  0  0  0  0  0  0  0  0
   -0.1535    0.3955    0.0000 P   0  0  0  0  0  0  0  0  0  0  0  0
    0.5609   -0.0170    0.0000 C   0  0  0  0  0  0  0  0  0  0  0  0
   -0.8680    0.8080    0.0000 O   0  0  0  0  0  0  0  0  0  0  0  0
   -0.5660   -0.3190    0.0000 O   0  0  0  0  0  0  0  0  0  0  0  0
    0.9734    0.6975    0.0000 C   0  0  0  0  0  0  0  0  0  0  0  0
    1.2754   -0.4295    0.0000 O   0  0  0  0  0  0  0  0  0  0  0  0
   -0.8680    1.6330    0.0000 C   0  0  0  0  0  0  0  0  0  0  0  0
   -0.5660   -1.1440    0.0000 C   0  0  0  0  0  0  0  0  0  0  0  0
    0.5609    1.4119    0.0000 Cl  0  0  0  0  0  0  0  0  0  0  0  0
    1.6879    0.2850    0.0000 Cl  0  0  0  0  0  0  0  0  0  0  0  0
    1.3859    1.4119    0.0000 Cl  0  0  0  0  0  0  0  0  0  0  0  0
    1.2754   -1.2545    0.0000 C   0  0  0  0  0  0  0  0  0  0  0  0
   -0.1535    2.0455    0.0000 C   0  0  0  0  0  0  0  0  0  0  0  0
   -1.5825    2.0455    0.0000 C   0  0  0  0  0  0  0  0  0  0  0  0
   -1.2805   -1.5565    0.0000 C   0  0  0  0  0  0  0  0  0  0  0  0
    0.1484   -1.5565    0.0000 C   0  0  0  0  0  0  0  0  0  0  0  0
    0.5609   -1.6670    0.0000 O   0  0  0  0  0  0  0  0  0  0  0  0
    1.9899   -1.6670    0.0000 C   0  0  0  0  0  0  0  0  0  0  0  0
   -0.1535    2.8705    0.0000 C   0  0  0  0  0  0  0  0  0  0  0  0
   -1.5825    2.8705    0.0000 C   0  0  0  0  0  0  0  0  0  0  0  0
   -1.2805   -2.3815    0.0000 C   0  0  0  0  0  0  0  0  0  0  0  0
    0.1484   -2.3815    0.0000 C   0  0  0  0  0  0  0  0  0  0  0  0
   -0.8680    3.2830    0.0000 C   0  0  0  0  0  0  0  0  0  0  0  0
   -0.5660   -2.7940    0.0000 C   0  0  0  0  0  0  0  0  0  0  0  0
  1  2  2  0  0  0  0 
  2  3  1  0  0  0  0 
  2  4  1  0  0  0  0 
  2  5  1  0  0  0  0 
  3  6  1  0  0  0  0 
  3  7  1  0  0  0  0 
  4  8  1  0  0  0  0 
  5  9  1  0  0  0  0 
  6 10  1  0  0  0  0 
  6 11  1  0  0  0  0 
  6 12  1  0  0  0  0 
  7 13  1  0  0  0  0 
  8 14  1  0  0  0  0 
  8 15  2  0  0  0  0 
  9 16  1  0  0  0  0 
  9 17  2  0  0  0  0 
 13 18  2  0  0  0  0 
 13 19  1  0  0  0  0 
 14 20  2  0  0  0  0 
 21 15  1  0  0  0  0 
 16 22  2  0  0  0  0 
 23 17  1  0  0  0  0 
 20 24  1  0  0  0  0 
 24 21  2  0  0  0  0 
 22 25  1  0  0  0  0 
 25 23  2  0  0  0  0 
M  END
> <Name>
Phosphonic acid, (1-(acetyloxy)-2,2,2-trichloroethyl)-, diphenyl ester

> <Source>
Smiles

> <Tox>
2.111

> <CAS>
74548-80-4

$$$$

  CDK

 32 32  0  0  0  0  0  0  0  0999 V2000
    8.3953    0.0000    0.0000 C   0  0  0  0  0  0  0  0  0  0  0  0
    7.6957    1.2127    0.0000 C   0  0  0  0  0  0  0  0  0  0  0  0
    6.2965    1.2127    0.0000 O   0  0  0  0  0  0  0  0  0  0  0  0
    5.5969    2.4253    0.0000 C   0  0  0  0  0  0  0  0  0  0  0  0
    4.1977    2.4253    0.0000 O   0  0  0  0  0  0  0  0  0  0  0  0
    6.2965    3.6380    0.0000 O   0  0  0  0  0  0  0  0  0  0  0  0
    5.5969    4.8506    0.0000 C   0  0  0  0  0  0  0  0  0  0  0  0
    4.1977    4.8506    0.0000 C   0  0  0  0  0  0  0  0  0  0  0  0
    6.2965    6.0633    0.0000 C   0  0  0  0  0  0  0  0  0  0  0  0
    3.4981    6.0633    0.0000 C   0  0  0  0  0  0  0  0  0  0  0  0
    5.5969    7.2760    0.0000 C   0  0  0  0  0  0  0  0  0  0  0  0
    7.6957    6.0633    0.0000 O   0  0  0  0  0  0  0  0  0  0  0  0
    4.1977    7.2760    0.0000 C   0  0  0  0  0  0  0  0  0  0  0  0
    8.3953    7.2760    0.0000 C   0  0  0  0  0  0  0  0  0  0  0  0
    3.4981    8.4886    0.0000 C   0  0  0  0  0  0  0  0  0  0  0  0
    9.7946    7.2760    0.0000 O   0  0  0  0  0  0  0  0  0  0  0  0
    7.6957    8.4886    0.0000 O   0  0  0  0  0  0  0  0  0  0  0  0
    4.1977    9.7013    0.0000 C   0  0  0  0  0  0  0  0  0  0  0  0
    6.2965    8.4886    0.0000 C   0  0  0  0  0  0  0  0  0  0  0  0
    3.4981   10.9139    0.0000 N   0  0  0  0  0  0  0  0  0  0  0  0
    5.5969    9.7013    0.0000 C   0  0  0  0  0  0  0  0  0  0  0  0
    4.1977   12.1266    0.0000 C   0  0  0  0  0  0  0  0  0  0  0  0
    5.5969   12.1266    0.0000 O   0  0  0  0  0  0  0  0  0  0  0  0
    3.4981   13.3393    0.0000 C   0  0  0  0  0  0  0  0  0  0  0  0
    4.1977   14.5519    0.0000 C   0  0  0  0  0  0  0  0  0  0  0  0
    2.0988   13.3393    0.0000 N   0  0  0  0  0  0  0  0  0  0  0  0
    3.4981   15.7646    0.0000 C   0  0  0  0  0  0  0  0  0  0  0  0
    1.3992   14.5519    0.0000 C   0  0  0  0  0  0  0  0  0  0  0  0
    4.1977   16.9772    0.0000 S   0  0  0  0  0  0  0  0  0  0  0  0
    2.0988   15.7646    0.0000 C   0  0  0  0  0  0  0  0  0  0  0  0
    0.0000   14.5519    0.0000 O   0  0  0  0  0  0  0  0  0  0  0  0
    3.4981   18.1899    0.0000 C   0  0  0  0  0  0  0  0  0  0  0  0
  1  2  1  0  0  0  0 
  2  3  1  0  0  0  0 
  3  4  1  0  0  0  0 
  4  5  2  0  0  0  0 
  4  6  1  0  0  0  0 
  6  7  1  0  0  0  0 
  7  8  2  0  0  0  0 
  7  9  1  0  0  0  0 
  8 10  1  0  0  0  0 
 11  9  2  0  0  0  0 
  9 12  1  0  0  0  0 
 10 13  2  0  0  0  0 
 13 11  1  0  0  0  0 
 12 14  1  0  0  0  0 
 13 15  1  0  0  0  0 
 14 16  2  0  0  0  0 
 14 17  1  0  0  0  0 
 15 18  1  0  0  0  0 
 17 19  1  0  0  0  0 
 18 20  1  0  0  0  0 
 19 21  1  0  0  0  0 
 20 22  1  0  0  0  0 
 22 23  2  0  0  0  0 
 22 24  1  0  0  0  0 
 24 25  1  0  0  0  0 
 24 26  1  0  0  0  0 
 25 27  1  0  0  0  0 
 26 28  1  0  0  0  0 
 27 29  1  0  0  0  0 
 28 30  1  0  0  0  0 
 28 31  2  0  0  0  0 
 29 32  1  0  0  0  0 
M  END
> <Name>
Carbonic acid, 4-(2-((2-(acetylamino)-4-(methylthio)-1-oxobutyl)amino)ethyl)-1,2-phenylene diethyl ester, (S)-

> <Source>
IndexNet2DMolFile

> <Tox>
2.372

> <CAS>
74639-40-0

$$$$

  CDK

 16 15  0  0  0  0  0  0  0  0999 V2000
   -3.3704    3.0958    3.6643 Cl  0  0  0  0  0  0  0  0  0  0  0  0
   -3.0100    1.4177    4.2029 C   0  0  0  0  0  0  0  0  0  0  0  0
   -4.0391    0.3052    3.2492 Cl  0  0  0  0  0  0  0  0  0  0  0  0
   -3.4899    1.3001    5.9243 Cl  0  0  0  0  0  0  0  0  0  0  0  0
   -1.5106    1.1108    4.0292 C   0  0  0  0  0  0  0  0  0  0  0  0
   -0.7991    1.3308    2.3850 P   0  0  0  0  0  0  0  0  0  0  0  0
   -0.7328    2.0386    4.8224 O   0  0  0  0  0  0  0  0  0  0  0  0
   -1.1798    2.8492    1.9708 O   0  0  0  0  0  0  0  0  0  0  0  0
   -1.7114    0.4226    1.3998 O   0  0  0  0  0  0  0  0  0  0  0  0
    0.6662    1.0133    2.2903 O   0  0  0  0  0  0  0  0  0  0  0  0
    0.6301    1.9499    4.7943 C   0  0  0  0  0  0  0  0  0  0  0  0
   -0.7554    3.3353    0.7094 C   0  0  0  0  0  0  0  0  0  0  0  0
   -1.8322   -0.9763    1.5872 C   0  0  0  0  0  0  0  0  0  0  0  0
    1.2802    0.9302    4.6145 O   0  0  0  0  0  0  0  0  0  0  0  0
    1.1940    3.3254    5.0243 C   0  0  0  0  0  0  0  0  0  0  0  0
    2.9645    3.2663    5.0305 Cl  0  0  0  0  0  0  0  0  0  0  0  0
  1  2  1  0  0  0  0 
  3  2  1  0  0  0  0 
  4  2  1  0  0  0  0 
  5  2  1  0  0  0  0 
  6  5  1  0  0  0  0 
  7  5  1  0  0  0  0 
  6  8  1  0  0  0  0 
  6  9  1  0  0  0  0 
  6 10  2  0  0  0  0 
  7 11  1  0  0  0  0 
  8 12  1  0  0  0  0 
  9 13  1  0  0  0  0 
 14 11  2  0  0  0  0 
 11 15  1  0  0  0  0 
 16 15  1  0  0  0  0 
M  END
> <Name>
Acetic acid, chloro-, ester with dimethyl(2,2,2-trichloro-1-hydroxyethyl)phosphonate (7CI)

> <Source>
Chemidplus3DMolFile

> <Tox>
2.987

> <CAS>
74940-61-7

$$$$

  CDK

 42 46  0  0  0  0  0  0  0  0999 V2000
   -8.3977    3.6653   10.0112 Cl  0  0  0  0  0  0  0  0  0  0  0  0
   -6.8825    4.0027   10.8850 C   0  0  0  0  0  0  0  0  0  0  0  0
   -6.1665    5.2138   10.3082 C   0  0  0  0  0  0  0  0  0  0  0  0
   -4.9396    5.4855   11.0308 N   0  0  0  0  0  0  0  0  0  0  0  0
   -3.7261    4.8915   10.6262 C   0  0  0  0  0  0  0  0  0  0  0  0
   -4.9734    6.3862   12.1658 C   0  0  0  0  0  0  0  0  0  0  0  0
   -3.7039    4.0259    9.5327 C   0  0  0  0  0  0  0  0  0  0  0  0
   -2.5483    5.1697   11.3198 C   0  0  0  0  0  0  0  0  0  0  0  0
   -4.7313    7.8227   11.7296 C   0  0  0  0  0  0  0  0  0  0  0  0
   -2.5037    3.4384    9.1327 C   0  0  0  0  0  0  0  0  0  0  0  0
   -1.3482    4.5821   10.9198 C   0  0  0  0  0  0  0  0  0  0  0  0
   -4.7810    8.9407   13.1155 Cl  0  0  0  0  0  0  0  0  0  0  0  0
   -1.3259    3.7164    9.8262 C   0  0  0  0  0  0  0  0  0  0  0  0
   -0.0292    3.0815    9.3942 C   0  0  0  0  0  0  0  0  0  0  0  0
    0.7664    3.8922    8.3609 C   0  0  0  0  0  0  0  0  0  0  0  0
    0.0232    4.1172    7.0423 C   0  0  0  0  0  0  0  0  0  0  0  0
   -0.3662    2.8276    6.3567 C   0  0  0  0  0  0  0  0  0  0  0  0
   -1.5693    2.9746    5.7136 O   0  0  0  0  0  0  0  0  0  0  0  0
    0.2923    1.7965    6.3967 O   0  0  0  0  0  0  0  0  0  0  0  0
   -2.0660    1.8281    5.0521 C   0  0  0  0  0  0  0  0  0  0  0  0
   -3.3833    2.1708    4.4076 C   0  0  0  0  0  0  0  0  0  0  0  0
   -3.6962    3.4741    4.6851 O   0  0  0  0  0  0  0  0  0  0  0  0
   -4.0605    1.3986    3.7428 O   0  0  0  0  0  0  0  0  0  0  0  0
   -4.9243    3.9461    4.1388 C   0  0  0  0  0  0  0  0  0  0  0  0
   -4.8927    5.4765    3.9386 C   0  0  0  0  0  0  0  0  0  0  0  0
   -6.0524    3.7223    5.1698 C   0  0  0  0  0  0  0  0  0  0  0  0
   -5.1314    5.9489    5.3867 C   0  0  0  0  0  0  0  0  0  0  0  0
   -3.5608    6.0830    3.4693 C   0  0  0  0  0  0  0  0  0  0  0  0
   -6.0242    5.8516    2.9472 C   0  0  0  0  0  0  0  0  0  0  0  0
   -6.2918    5.0804    5.8600 C   0  0  0  0  0  0  0  0  0  0  0  0
   -5.2535    7.4769    5.5062 C   0  0  0  0  0  0  0  0  0  0  0  0
   -3.5770    7.6179    3.5763 C   0  0  0  0  0  0  0  0  0  0  0  0
   -3.9489    8.1596    4.9863 C   0  0  0  0  0  0  0  0  0  0  0  0
   -5.5590    7.9539    6.9281 C   0  0  0  0  0  0  0  0  0  0  0  0
   -2.8141    8.1302    6.0147 C   0  0  0  0  0  0  0  0  0  0  0  0
   -4.4518    7.5866    7.9062 C   0  0  0  0  0  0  0  0  0  0  0  0
   -3.0705    7.8872    7.3821 C   0  0  0  0  0  0  0  0  0  0  0  0
   -1.4944    8.4424    5.6385 C   0  0  0  0  0  0  0  0  0  0  0  0
   -2.0102    7.8842    8.3069 C   0  0  0  0  0  0  0  0  0  0  0  0
   -0.4521    8.4476    6.5685 C   0  0  0  0  0  0  0  0  0  0  0  0
   -0.7080    8.1595    7.9018 C   0  0  0  0  0  0  0  0  0  0  0  0
    0.3051    8.1596    8.8092 O   0  0  0  0  0  0  0  0  0  0  0  0
  1  2  1  0  0  0  0 
  3  2  1  0  0  0  0 
  4  3  1  0  0  0  0 
  4  5  1  0  0  0  0 
  4  6  1  0  0  0  0 
  5  7  2  0  0  0  0 
  5  8  1  0  0  0  0 
  6  9  1  0  0  0  0 
 10  7  1  0  0  0  0 
 11  8  2  0  0  0  0 
 12  9  1  0  0  0  0 
 13 10  2  0  0  0  0 
 13 11  1  0  0  0  0 
 14 13  1  0  0  0  0 
 15 14  1  0  0  0  0 
 16 15  1  0  0  0  0 
 17 16  1  0  0  0  0 
 18 17  1  0  0  0  0 
 19 17  2  0  0  0  0 
 18 20  1  0  0  0  0 
 21 20  1  0  0  0  0 
 22 21  1  0  0  0  0 
 23 21  2  0  0  0  0 
 22 24  1  0  0  0  0 
 25 24  1  0  0  0  0 
 24 26  1  0  0  0  0 
 25 27  1  0  0  0  0 
 25 28  1  0  0  0  0 
 25 29  1  0  0  0  0 
 30 26  1  0  0  0  0 
 27 31  1  0  0  0  0 
 27 30  1  0  0  0  0 
 28 32  1  0  0  0  0 
 31 33  1  0  0  0  0 
 31 34  1  0  0  0  0 
 33 32  1  0  0  0  0 
 33 35  1  0  0  0  0 
 34 36  1  0  0  0  0 
 35 37  2  0  0  0  0 
 35 38  1  0  0  0  0 
 36 37  1  0  0  0  0 
 37 39  1  0  0  0  0 
 38 40  2  0  0  0  0 
 39 41  2  0  0  0  0 
 40 41  1  0  0  0  0 
 42 41  1  0  0  0  0 
M  END
> <Name>
Estra-1,3,5(10)-triene-3,17-diol, (17-beta)-, 17-((4-(4-(bis(2-chloroethyl)amino)phenyl)-1-oxobutoxy)acetate)

> <Source>
Chemidplus3DMolFile

> <Tox>
2.956

> <CAS>
75219-45-3

$$$$

  CDK

 22 24  0  0  0  0  0  0  0  0999 V2000
    9.6546    2.7984    0.0000 C   0  0  0  0  0  0  0  0  0  0  0  0
    8.4420    2.0988    0.0000 C   0  0  0  0  0  0  0  0  0  0  0  0
    7.2293    2.7984    0.0000 C   0  0  0  0  0  0  0  0  0  0  0  0
    6.0167    2.0988    0.0000 C   0  0  0  0  0  0  0  0  0  0  0  0
    6.0167    0.6996    0.0000 O   0  0  0  0  0  0  0  0  0  0  0  0
    4.8040    2.7984    0.0000 C   0  0  0  0  0  0  0  0  0  0  0  0
    3.5913    2.0988    0.0000 C   0  0  0  0  0  0  0  0  0  0  0  0
    4.8040    4.1977    0.0000 C   0  0  0  0  0  0  0  0  0  0  0  0
    3.5913    0.6996    0.0000 C   0  0  0  0  0  0  0  0  0  0  0  0
    2.3787    2.7984    0.0000 C   0  0  0  0  0  0  0  0  0  0  0  0
    6.0167    4.8973    0.0000 C   0  0  0  0  0  0  0  0  0  0  0  0
    3.5913    4.8973    0.0000 C   0  0  0  0  0  0  0  0  0  0  0  0
    2.3787    0.0000    0.0000 C   0  0  0  0  0  0  0  0  0  0  0  0
    1.1660    2.0988    0.0000 C   0  0  0  0  0  0  0  0  0  0  0  0
    2.3787    4.1977    0.0000 C   0  0  0  0  0  0  0  0  0  0  0  0
    6.0167    6.2965    0.0000 C   0  0  0  0  0  0  0  0  0  0  0  0
    3.5913    6.2965    0.0000 C   0  0  0  0  0  0  0  0  0  0  0  0
    1.1660    0.6996    0.0000 C   0  0  0  0  0  0  0  0  0  0  0  0
    0.0000    2.7984    0.0000 O   0  0  0  0  0  0  0  0  0  0  0  0
    1.1660    4.8973    0.0000 O   0  0  0  0  0  0  0  0  0  0  0  0
    4.8040    6.9495    0.0000 C   0  0  0  0  0  0  0  0  0  0  0  0
    2.3787    6.9495    0.0000 O   0  0  0  0  0  0  0  0  0  0  0  0
  1  2  1  0  0  0  0 
  2  3  1  0  0  0  0 
  3  4  1  0  0  0  0 
  4  5  2  0  0  0  0 
  4  6  1  0  0  0  0 
  6  7  1  0  0  0  0 
  6  8  1  0  0  0  0 
  7  9  1  0  0  0  0 
  7 10  2  0  0  0  0 
 11  8  2  0  0  0  0 
 12  8  1  0  0  0  0 
  9 13  2  0  0  0  0 
 14 10  1  0  0  0  0 
 10 15  1  0  0  0  0 
 16 11  1  0  0  0  0 
 15 12  1  0  0  0  0 
 12 17  2  0  0  0  0 
 13 18  1  0  0  0  0 
 18 14  2  0  0  0  0 
 14 19  1  0  0  0  0 
 15 20  2  0  0  0  0 
 21 16  2  0  0  0  0 
 17 22  1  0  0  0  0 
 17 21  1  0  0  0  0 
M  END
> <Name>
9(10H)-Anthracenone, 1,8-dihydroxy-10-(1-oxobutyl)-

> <Source>
IndexNet2DMolFile

> <Tox>
2.273

> <CAS>
75464-11-8

$$$$

  CDK

 25 26  0  0  0  0  0  0  0  0999 V2000
   -1.3458    1.9089    0.3108 S   0  0  0  0  0  0  0  0  0  0  0  0
    0.1157    0.5757   -0.4748 P   0  0  0  0  0  0  0  0  0  0  0  0
   -2.9179    1.3583   -0.3825 C   0  0  0  0  0  0  0  0  0  0  0  0
    2.0116    0.9572   -0.1420 S   0  0  0  0  0  0  0  0  0  0  0  0
   -0.3030   -0.9238    0.0234 O   0  0  0  0  0  0  0  0  0  0  0  0
   -0.2150    0.3898   -2.0651 O   0  0  0  0  0  0  0  0  0  0  0  0
   -4.0579    2.2428    0.1098 C   0  0  0  0  0  0  0  0  0  0  0  0
   -0.2294   -1.3583    1.3227 C   0  0  0  0  0  0  0  0  0  0  0  0
   -0.0081    1.4621   -2.9695 C   0  0  0  0  0  0  0  0  0  0  0  0
   -5.3906    1.7923   -0.4705 C   0  0  0  0  0  0  0  0  0  0  0  0
   -0.5703   -2.5881    1.7071 C   0  0  0  0  0  0  0  0  0  0  0  0
    0.2474   -0.4662    2.3768 C   0  0  0  0  0  0  0  0  0  0  0  0
   -0.3936    1.0133   -4.3629 C   0  0  0  0  0  0  0  0  0  0  0  0
   -1.0303   -3.5418    0.8222 O   0  0  0  0  0  0  0  0  0  0  0  0
   -0.4564   -2.9933    3.1383 C   0  0  0  0  0  0  0  0  0  0  0  0
    0.3394   -0.7532    3.6293 N   0  0  0  0  0  0  0  0  0  0  0  0
   -2.4386   -3.4810    0.7051 C   0  0  0  0  0  0  0  0  0  0  0  0
   -0.7260   -4.1640    3.4071 O   0  0  0  0  0  0  0  0  0  0  0  0
   -0.0335   -2.0096    4.0415 N   0  0  0  0  0  0  0  0  0  0  0  0
    0.0753   -2.1952    5.4690 C   0  0  0  0  0  0  0  0  0  0  0  0
   -0.7734   -3.0886    6.1228 C   0  0  0  0  0  0  0  0  0  0  0  0
    1.0294   -1.4818    6.1947 C   0  0  0  0  0  0  0  0  0  0  0  0
   -0.6683   -3.2684    7.5020 C   0  0  0  0  0  0  0  0  0  0  0  0
    1.1346   -1.6618    7.5739 C   0  0  0  0  0  0  0  0  0  0  0  0
    0.2857   -2.5551    8.2275 C   0  0  0  0  0  0  0  0  0  0  0  0
  1  2  1  0  0  0  0 
  1  3  1  0  0  0  0 
  4  2  2  0  0  0  0 
  2  5  1  0  0  0  0 
  2  6  1  0  0  0  0 
  3  7  1  0  0  0  0 
  5  8  1  0  0  0  0 
  6  9  1  0  0  0  0 
  7 10  1  0  0  0  0 
  8 11  2  0  0  0  0 
  8 12  1  0  0  0  0 
  9 13  1  0  0  0  0 
 14 11  1  0  0  0  0 
 11 15  1  0  0  0  0 
 16 12  2  0  0  0  0 
 14 17  1  0  0  0  0 
 18 15  2  0  0  0  0 
 19 15  1  0  0  0  0 
 19 16  1  0  0  0  0 
 19 20  1  0  0  0  0 
 20 21  2  0  0  0  0 
 20 22  1  0  0  0  0 
 21 23  1  0  0  0  0 
 22 24  2  0  0  0  0 
 23 25  2  0  0  0  0 
 24 25  1  0  0  0  0 
M  END
> <Name>
Phosphorodithioic acid, O-(1,6-dihydro-5-methoxy-6-oxo-1-phenyl-4-pyridazinyl) O-ethyl S-propyl ester

> <Source>
Chemidplus3DMolFile

> <Tox>
3.125

> <CAS>
76269-67-5

$$$$

  CDK

 24 25  0  0  0  0  0  0  0  0999 V2000
    3.4567    0.0000    0.0000 O   0  0  0  0  0  0  0  0  0  0  0  0
    4.1647    1.2078    0.0000 C   0  0  0  0  0  0  0  0  0  0  0  0
    5.5808    1.2078    0.0000 O   0  0  0  0  0  0  0  0  0  0  0  0
    3.4567    2.4156    0.0000 C   0  0  0  0  0  0  0  0  0  0  0  0
    2.0824    2.4156    0.0000 C   0  0  0  0  0  0  0  0  0  0  0  0
    4.1647    3.6233    0.0000 C   0  0  0  0  0  0  0  0  0  0  0  0
    1.3744    1.2078    0.0000 Cl  0  0  0  0  0  0  0  0  0  0  0  0
    1.3744    3.6233    0.0000 C   0  0  0  0  0  0  0  0  0  0  0  0
    3.4567    4.8311    0.0000 C   0  0  0  0  0  0  0  0  0  0  0  0
    5.5808    3.6233    0.0000 C   0  0  0  0  0  0  0  0  0  0  0  0
    0.0000    3.6233    0.0000 Cl  0  0  0  0  0  0  0  0  0  0  0  0
    2.0824    4.8311    0.0000 C   0  0  0  0  0  0  0  0  0  0  0  0
    4.1647    6.0389    0.0000 Cl  0  0  0  0  0  0  0  0  0  0  0  0
    6.2888    2.4156    0.0000 O   0  0  0  0  0  0  0  0  0  0  0  0
    6.2888    4.8311    0.0000 N   0  0  0  0  0  0  0  0  0  0  0  0
    1.3744    6.0389    0.0000 Cl  0  0  0  0  0  0  0  0  0  0  0  0
    7.6631    4.8311    0.0000 C   0  0  0  0  0  0  0  0  0  0  0  0
    8.3711    3.6233    0.0000 C   0  0  0  0  0  0  0  0  0  0  0  0
    8.3711    6.0389    0.0000 C   0  0  0  0  0  0  0  0  0  0  0  0
    9.7872    3.6233    0.0000 C   0  0  0  0  0  0  0  0  0  0  0  0
    9.7872    6.0389    0.0000 C   0  0  0  0  0  0  0  0  0  0  0  0
    7.6631    7.2467    0.0000 Cl  0  0  0  0  0  0  0  0  0  0  0  0
   10.4535    4.8311    0.0000 C   0  0  0  0  0  0  0  0  0  0  0  0
   10.4535    7.2467    0.0000 Cl  0  0  0  0  0  0  0  0  0  0  0  0
  1  2  1  0  0  0  0 
  2  3  2  0  0  0  0 
  2  4  1  0  0  0  0 
  4  5  2  0  0  0  0 
  4  6  1  0  0  0  0 
  5  7  1  0  0  0  0 
  5  8  1  0  0  0  0 
  9  6  2  0  0  0  0 
  6 10  1  0  0  0  0 
  8 11  1  0  0  0  0 
  8 12  2  0  0  0  0 
 12  9  1  0  0  0  0 
  9 13  1  0  0  0  0 
 10 14  2  0  0  0  0 
 10 15  1  0  0  0  0 
 12 16  1  0  0  0  0 
 15 17  1  0  0  0  0 
 17 18  1  0  0  0  0 
 17 19  2  0  0  0  0 
 18 20  2  0  0  0  0 
 21 19  1  0  0  0  0 
 19 22  1  0  0  0  0 
 20 23  1  0  0  0  0 
 23 21  2  0  0  0  0 
 21 24  1  0  0  0  0 
M  END
> <Name>
Benzoic acid, 2,3,4,5-tetrachloro-6-(((2,3-dichlorophenyl)amino)carbonyl)-

> <Source>
IndexNet2DMolFile

> <Tox>
2.282

> <CAS>
76280-91-6

$$$$

  CDK

 22 24  0  0  0  0  0  0  0  0999 V2000
    6.9551    4.2064    0.0000 O   0  0  0  0  0  0  0  0  0  0  0  0
    5.5808    4.2064    0.0000 C   0  0  0  0  0  0  0  0  0  0  0  0
    5.5808    5.5808    0.0000 C   0  0  0  0  0  0  0  0  0  0  0  0
    4.1647    4.2064    0.0000 C   0  0  0  0  0  0  0  0  0  0  0  0
    5.5808    2.7904    0.0000 C   0  0  0  0  0  0  0  0  0  0  0  0
    6.7885    6.2888    0.0000 N   0  0  0  0  0  0  0  0  0  0  0  0
    3.4567    2.9986    0.0000 C   0  0  0  0  0  0  0  0  0  0  0  0
    3.4567    5.4142    0.0000 C   0  0  0  0  0  0  0  0  0  0  0  0
    4.3730    2.1240    0.0000 C   0  0  0  0  0  0  0  0  0  0  0  0
    6.7885    2.1240    0.0000 C   0  0  0  0  0  0  0  0  0  0  0  0
    8.0796    5.7474    0.0000 C   0  0  0  0  0  0  0  0  0  0  0  0
    6.9135    7.7048    0.0000 N   0  0  0  0  0  0  0  0  0  0  0  0
    2.0824    2.9986    0.0000 C   0  0  0  0  0  0  0  0  0  0  0  0
    2.0824    5.4142    0.0000 C   0  0  0  0  0  0  0  0  0  0  0  0
    4.3730    0.7080    0.0000 C   0  0  0  0  0  0  0  0  0  0  0  0
    6.7885    0.7080    0.0000 C   0  0  0  0  0  0  0  0  0  0  0  0
    7.9963    2.7904    0.0000 F   0  0  0  0  0  0  0  0  0  0  0  0
    8.9959    6.8302    0.0000 N   0  0  0  0  0  0  0  0  0  0  0  0
    8.3295    7.9547    0.0000 C   0  0  0  0  0  0  0  0  0  0  0  0
    1.3744    4.2064    0.0000 C   0  0  0  0  0  0  0  0  0  0  0  0
    5.5808    0.0000    0.0000 C   0  0  0  0  0  0  0  0  0  0  0  0
    0.0000    4.2064    0.0000 F   0  0  0  0  0  0  0  0  0  0  0  0
  1  2  1  0  0  0  0 
  2  3  1  0  0  0  0 
  2  4  1  0  0  0  0 
  2  5  1  0  0  0  0 
  3  6  1  0  0  0  0 
  4  7  1  0  0  0  0 
  4  8  2  0  0  0  0 
  5  9  1  0  0  0  0 
  5 10  2  0  0  0  0 
  6 11  1  0  0  0  0 
  6 12  1  0  0  0  0 
  7 13  2  0  0  0  0 
 14  8  1  0  0  0  0 
  9 15  2  0  0  0  0 
 16 10  1  0  0  0  0 
 10 17  1  0  0  0  0 
 11 18  2  0  0  0  0 
 19 12  2  0  0  0  0 
 13 20  1  0  0  0  0 
 20 14  2  0  0  0  0 
 15 21  1  0  0  0  0 
 21 16  2  0  0  0  0 
 18 19  1  0  0  0  0 
 20 22  1  0  0  0  0 
M  END
> <Name>
1H-1,2,4-Triazole-1-ethanol, alpha-(2-fluorophenyl)-alpha-(4-fluorophenyl)-

> <Source>
IndexNet2DMolFile

> <Tox>
2.422

> <CAS>
76674-21-0

$$$$

  CDK

 21 22  0  0  0  0  0  0  0  0999 V2000
    7.0366   -2.8733    2.6780 Cl  0  0  0  0  0  0  0  0  0  0  0  0
    7.5974   -1.3088    2.2006 C   0  0  0  0  0  0  0  0  0  0  0  0
    6.7449   -0.3378    1.6932 C   0  0  0  0  0  0  0  0  0  0  0  0
    8.9569   -1.0274    2.3371 C   0  0  0  0  0  0  0  0  0  0  0  0
    5.3039   -0.5831    1.5276 C   0  0  0  0  0  0  0  0  0  0  0  0
    7.2267    0.9101    1.3193 C   0  0  0  0  0  0  0  0  0  0  0  0
    9.4511    0.2228    1.9647 C   0  0  0  0  0  0  0  0  0  0  0  0
    4.6437   -1.1430    0.4825 C   0  0  0  0  0  0  0  0  0  0  0  0
    8.5859    1.1914    1.4558 C   0  0  0  0  0  0  0  0  0  0  0  0
   11.1283    0.5706    2.1322 Cl  0  0  0  0  0  0  0  0  0  0  0  0
    3.2284   -1.3271    0.4378 N   0  0  0  0  0  0  0  0  0  0  0  0
    5.4702   -1.6099   -0.7380 C   0  0  0  0  0  0  0  0  0  0  0  0
    2.6337   -2.3038   -0.2164 N   0  0  0  0  0  0  0  0  0  0  0  0
    2.3898   -0.5007    1.0719 C   0  0  0  0  0  0  0  0  0  0  0  0
    5.3978   -3.0411   -0.8347 O   0  0  0  0  0  0  0  0  0  0  0  0
    5.0736   -0.9599   -2.1113 C   0  0  0  0  0  0  0  0  0  0  0  0
    1.3619   -2.0131    0.0654 C   0  0  0  0  0  0  0  0  0  0  0  0
    1.1636   -0.9155    0.8532 N   0  0  0  0  0  0  0  0  0  0  0  0
    3.5918   -1.2001   -2.4601 C   0  0  0  0  0  0  0  0  0  0  0  0
    5.3394    0.5577   -2.1067 C   0  0  0  0  0  0  0  0  0  0  0  0
    5.9262   -1.5820   -3.2409 C   0  0  0  0  0  0  0  0  0  0  0  0
  1  2  1  0  0  0  0 
  3  2  2  0  0  0  0 
  2  4  1  0  0  0  0 
  5  3  1  0  0  0  0 
  3  6  1  0  0  0  0 
  4  7  2  0  0  0  0 
  8  5  2  0  0  0  0 
  6  9  2  0  0  0  0 
 10  7  1  0  0  0  0 
  9  7  1  0  0  0  0 
 11  8  1  0  0  0  0 
 12  8  1  0  0  0  0 
 11 13  1  0  0  0  0 
 11 14  1  0  0  0  0 
 15 12  1  0  0  0  0 
 16 12  1  0  0  0  0 
 13 17  2  0  0  0  0 
 18 14  2  0  0  0  0 
 16 19  1  0  0  0  0 
 16 20  1  0  0  0  0 
 16 21  1  0  0  0  0 
 18 17  1  0  0  0  0 
M  END
> <Name>
(E)-?-[(2,4-dichlorophenyl)methylene]-?-(1,1-dimethylethyl)-1H-1,2,4-triazol-1-ethanol

> <Source>
Chemidplus3DMolFile

> <Tox>
2.838

> <CAS>
76714-88-0

$$$$

  CDK

 10  9  0  0  0  0  0  0  0  0999 V2000
    0.8644   -4.7126   -0.0720 S   0  0  0  0  0  0  0  0  0  0  0  0
    0.6887   -2.6964   -0.6379 P   0  0  0  0  0  0  0  0  0  0  0  0
    0.5587   -5.6567   -1.5782 C   0  0  0  0  0  0  0  0  0  0  0  0
    0.8541   -1.7560    0.6784 O   0  0  0  0  0  0  0  0  0  0  0  0
   -0.8260   -2.3670   -1.1280 O   0  0  0  0  0  0  0  0  0  0  0  0
    1.7010   -2.3656   -1.7040 O   0  0  0  0  0  0  0  0  0  0  0  0
    0.6579   -7.1525   -1.3006 C   0  0  0  0  0  0  0  0  0  0  0  0
    0.7182   -0.3523    0.5359 C   0  0  0  0  0  0  0  0  0  0  0  0
   -1.9211   -2.6111   -0.2623 C   0  0  0  0  0  0  0  0  0  0  0  0
    0.3981   -7.9623   -2.5625 C   0  0  0  0  0  0  0  0  0  0  0  0
  1  2  1  0  0  0  0 
  1  3  1  0  0  0  0 
  2  4  1  0  0  0  0 
  2  5  1  0  0  0  0 
  2  6  2  0  0  0  0 
  7  3  1  0  0  0  0 
  4  8  1  0  0  0  0 
  5  9  1  0  0  0  0 
  7 10  1  0  0  0  0 
M  END
> <Name>
Phosphorothioic acid, O,O-dimethyl S-propyl ester

> <Source>
Chemidplus3DMolFile

> <Tox>
4.292

> <CAS>
76936-70-4

$$$$

  CDK

 19 21  0  0  0  0  0  0  0  0999 V2000
   -0.1039   -2.4063    0.3764 S   0  0  0  0  0  0  0  0  0  0  0  0
    0.5827   -0.9272   -0.0146 C   0  0  0  0  0  0  0  0  0  0  0  0
    1.9002   -0.8641   -0.3237 N   0  0  0  0  0  0  0  0  0  0  0  0
   -0.0685    0.4163   -0.0782 C   0  0  0  0  0  0  0  0  0  0  0  0
    2.5750   -1.9333   -1.0465 C   0  0  0  0  0  0  0  0  0  0  0  0
    2.7004    0.3219   -0.0512 C   0  0  0  0  0  0  0  0  0  0  0  0
   -1.1233    0.7698    0.6727 C   0  0  0  0  0  0  0  0  0  0  0  0
    3.9167   -2.2379   -0.3944 C   0  0  0  0  0  0  0  0  0  0  0  0
    4.0358   -0.0796    0.5596 C   0  0  0  0  0  0  0  0  0  0  0  0
   -1.7799    2.0883    0.6130 C   0  0  0  0  0  0  0  0  0  0  0  0
    4.6932   -1.0408   -0.2737 O   0  0  0  0  0  0  0  0  0  0  0  0
   -1.0858    3.1634    0.0766 C   0  0  0  0  0  0  0  0  0  0  0  0
   -3.0831    2.2176    1.0984 C   0  0  0  0  0  0  0  0  0  0  0  0
   -1.7415    4.3770    0.0422 C   0  0  0  0  0  0  0  0  0  0  0  0
   -3.7243    3.4578    1.0515 C   0  0  0  0  0  0  0  0  0  0  0  0
   -1.2354    5.5446   -0.4403 O   0  0  0  0  0  0  0  0  0  0  0  0
   -3.0253    4.5202    0.5165 C   0  0  0  0  0  0  0  0  0  0  0  0
   -2.3449    6.4386   -0.2170 C   0  0  0  0  0  0  0  0  0  0  0  0
   -3.4837    5.7953    0.3903 O   0  0  0  0  0  0  0  0  0  0  0  0
  1  2  2  0  0  0  0 
  3  2  1  0  0  0  0 
  2  4  1  0  0  0  0 
  3  5  1  0  0  0  0 
  3  6  1  0  0  0  0 
  4  7  2  0  0  0  0 
  5  8  1  0  0  0  0 
  6  9  1  0  0  0  0 
 10  7  1  0  0  0  0 
 11  8  1  0  0  0  0 
 11  9  1  0  0  0  0 
 10 12  2  0  0  0  0 
 10 13  1  0  0  0  0 
 14 12  1  0  0  0  0 
 13 15  2  0  0  0  0 
 16 14  1  0  0  0  0 
 14 17  2  0  0  0  0 
 17 15  1  0  0  0  0 
 16 18  1  0  0  0  0 
 19 17  1  0  0  0  0 
 19 18  1  0  0  0  0 
M  END
> <Name>
Morpholine, 4-(3,4-methylenedioxythiocinnamoyl)-

> <Source>
Chemidplus3DMolFile

> <Tox>
2.988

> <CAS>
77129-82-9

$$$$

  CDK

 18 19  0  0  0  0  0  0  0  0999 V2000
    4.6082   -3.3276    0.0000 O   0  0  0  0  0  0  0  0  0  0  0  0
    4.6082   -2.0020    0.0000 C   0  0  0  0  0  0  0  0  0  0  0  0
    5.7625   -1.3347    0.0000 C   0  0  0  0  0  0  0  0  0  0  0  0
    3.4539   -1.3347    0.0000 N   0  0  0  0  0  0  0  0  0  0  0  0
    6.9168   -2.0020    0.0000 N   0  0  0  0  0  0  0  0  0  0  0  0
    2.3086   -2.0020    0.0000 C   0  0  0  0  0  0  0  0  0  0  0  0
    8.1252   -1.4609    0.0000 C   0  0  0  0  0  0  0  0  0  0  0  0
    7.0520   -3.3186    0.0000 C   0  0  0  0  0  0  0  0  0  0  0  0
    2.3086   -3.3276    0.0000 C   0  0  0  0  0  0  0  0  0  0  0  0
    1.1543   -1.3347    0.0000 C   0  0  0  0  0  0  0  0  0  0  0  0
    8.4047   -0.1533    0.0000 O   0  0  0  0  0  0  0  0  0  0  0  0
    9.0179   -2.4439    0.0000 C   0  0  0  0  0  0  0  0  0  0  0  0
    8.3506   -3.5982    0.0000 C   0  0  0  0  0  0  0  0  0  0  0  0
    1.1543   -3.9949    0.0000 C   0  0  0  0  0  0  0  0  0  0  0  0
    3.4539   -3.9949    0.0000 C   0  0  0  0  0  0  0  0  0  0  0  0
    0.0000   -2.0020    0.0000 C   0  0  0  0  0  0  0  0  0  0  0  0
    1.1543   -0.0000    0.0000 C   0  0  0  0  0  0  0  0  0  0  0  0
    0.0000   -3.3276    0.0000 C   0  0  0  0  0  0  0  0  0  0  0  0
  1  2  2  0  0  0  0 
  2  3  1  0  0  0  0 
  2  4  1  0  0  0  0 
  3  5  1  0  0  0  0 
  4  6  1  0  0  0  0 
  5  7  1  0  0  0  0 
  5  8  1  0  0  0  0 
  6  9  2  0  0  0  0 
  6 10  1  0  0  0  0 
  7 11  2  0  0  0  0 
  7 12  1  0  0  0  0 
 13  8  1  0  0  0  0 
  9 14  1  0  0  0  0 
  9 15  1  0  0  0  0 
 16 10  2  0  0  0  0 
 10 17  1  0  0  0  0 
 12 13  1  0  0  0  0 
 14 18  2  0  0  0  0 
 18 16  1  0  0  0  0 
M  END
> <Name>
1-Pyrrolidineacetamide, N-(2,6-dimethylphenyl)-2-oxo-

> <Source>
DSSTox2DMolFile

> <Tox>
2.319

> <CAS>
77191-36-7

$$$$

  CDK

 30 31  0  0  0  0  0  0  0  0999 V2000
   11.1615    8.6627    0.0000 C   0  0  0  0  0  0  0  0  0  0  0  0
   11.8695    7.4549    0.0000 C   0  0  0  0  0  0  0  0  0  0  0  0
   13.2855    7.4549    0.0000 O   0  0  0  0  0  0  0  0  0  0  0  0
   13.9519    6.2471    0.0000 C   0  0  0  0  0  0  0  0  0  0  0  0
   15.3679    6.2471    0.0000 O   0  0  0  0  0  0  0  0  0  0  0  0
   13.2855    5.0393    0.0000 C   0  0  0  0  0  0  0  0  0  0  0  0
   11.8695    5.0393    0.0000 O   0  0  0  0  0  0  0  0  0  0  0  0
   11.1615    3.8316    0.0000 C   0  0  0  0  0  0  0  0  0  0  0  0
   11.8695    2.6238    0.0000 O   0  0  0  0  0  0  0  0  0  0  0  0
    9.7872    3.8316    0.0000 C   0  0  0  0  0  0  0  0  0  0  0  0
    9.0792    2.6238    0.0000 C   0  0  0  0  0  0  0  0  0  0  0  0
    9.0792    5.0393    0.0000 C   0  0  0  0  0  0  0  0  0  0  0  0
    7.6631    2.6238    0.0000 C   0  0  0  0  0  0  0  0  0  0  0  0
    7.6631    5.0393    0.0000 C   0  0  0  0  0  0  0  0  0  0  0  0
    9.7872    6.2471    0.0000 N   0  0  0  0  0  0  0  0  0  0  0  0
    6.9551    1.4160    0.0000 O   0  0  0  0  0  0  0  0  0  0  0  0
    6.9551    3.8316    0.0000 C   0  0  0  0  0  0  0  0  0  0  0  0
    9.0792    7.4549    0.0000 O   0  0  0  0  0  0  0  0  0  0  0  0
   11.1615    6.2471    0.0000 O   0  0  0  0  0  0  0  0  0  0  0  0
    5.5808    1.4160    0.0000 C   0  0  0  0  0  0  0  0  0  0  0  0
    4.8728    0.2082    0.0000 C   0  0  0  0  0  0  0  0  0  0  0  0
    4.8728    2.6238    0.0000 C   0  0  0  0  0  0  0  0  0  0  0  0
    3.4567    0.2082    0.0000 C   0  0  0  0  0  0  0  0  0  0  0  0
    3.4567    2.6238    0.0000 C   0  0  0  0  0  0  0  0  0  0  0  0
    5.5808    3.8316    0.0000 Cl  0  0  0  0  0  0  0  0  0  0  0  0
    2.7904    1.4160    0.0000 C   0  0  0  0  0  0  0  0  0  0  0  0
    1.3744    1.4160    0.0000 C   0  0  0  0  0  0  0  0  0  0  0  0
    1.3744    2.7904    0.0000 F   0  0  0  0  0  0  0  0  0  0  0  0
    1.3744    0.0000    0.0000 F   0  0  0  0  0  0  0  0  0  0  0  0
    0.0000    1.4160    0.0000 F   0  0  0  0  0  0  0  0  0  0  0  0
  1  2  1  0  0  0  0 
  2  3  1  0  0  0  0 
  3  4  1  0  0  0  0 
  4  5  2  0  0  0  0 
  4  6  1  0  0  0  0 
  6  7  1  0  0  0  0 
  7  8  1  0  0  0  0 
  8  9  2  0  0  0  0 
  8 10  1  0  0  0  0 
 10 11  1  0  0  0  0 
 10 12  2  0  0  0  0 
 11 13  2  0  0  0  0 
 14 12  1  0  0  0  0 
 12 15  1  0  0  0  0 
 13 16  1  0  0  0  0 
 13 17  1  0  0  0  0 
 17 14  2  0  0  0  0 
 15 18  1  0  0  0  0 
 15 19  2  0  0  0  0 
 16 20  1  0  0  0  0 
 20 21  1  0  0  0  0 
 20 22  2  0  0  0  0 
 21 23  2  0  0  0  0 
 24 22  1  0  0  0  0 
 22 25  1  0  0  0  0 
 23 26  1  0  0  0  0 
 26 24  2  0  0  0  0 
 26 27  1  0  0  0  0 
 27 28  1  0  0  0  0 
 27 29  1  0  0  0  0 
 27 30  1  0  0  0  0 
M  CHG  1  15   1
M  CHG  1  18  -1
M  END
> <Name>
Benzoic acid, 5-(2-chloro-4-(trifluoromethyl)phenoxy)-2-nitro-, ester with ethyl glycolate

> <Source>
IndexNet2DMolFile

> <Tox>
2.481

> <CAS>
77501-90-7

$$$$

  CDK

 19 20  0  0  0  0  0  0  0  0999 V2000
   -0.2764    0.1194    8.7001 Cl  0  0  0  0  0  0  0  0  0  0  0  0
    0.3264    0.5674    7.1455 C   0  0  0  0  0  0  0  0  0  0  0  0
    0.8252   -0.3844    6.2560 C   0  0  0  0  0  0  0  0  0  0  0  0
    0.3066    1.9151    6.7859 C   0  0  0  0  0  0  0  0  0  0  0  0
    1.3059    0.0076    5.0032 C   0  0  0  0  0  0  0  0  0  0  0  0
    0.8520   -1.8345    6.6303 C   0  0  0  0  0  0  0  0  0  0  0  0
    0.7851    2.3109    5.5369 C   0  0  0  0  0  0  0  0  0  0  0  0
    1.8142   -0.9357    4.0917 N   0  0  0  0  0  0  0  0  0  0  0  0
    1.2837    1.3591    4.6475 C   0  0  0  0  0  0  0  0  0  0  0  0
    2.0871   -2.1287    7.2666 O   0  0  0  0  0  0  0  0  0  0  0  0
    1.8509   -0.9767    2.6799 C   0  0  0  0  0  0  0  0  0  0  0  0
    2.8827   -1.6333    2.0090 C   0  0  0  0  0  0  0  0  0  0  0  0
    0.8367   -0.3494    1.9562 C   0  0  0  0  0  0  0  0  0  0  0  0
    2.9002   -1.6626    0.6145 C   0  0  0  0  0  0  0  0  0  0  0  0
    3.9570   -2.2983    2.7357 C   0  0  0  0  0  0  0  0  0  0  0  0
    0.8541   -0.3789    0.5617 C   0  0  0  0  0  0  0  0  0  0  0  0
    1.8858   -1.0354   -0.1090 C   0  0  0  0  0  0  0  0  0  0  0  0
    4.4574   -3.3654    2.0570 O   0  0  0  0  0  0  0  0  0  0  0  0
    4.3864   -1.9589    3.8412 O   0  0  0  0  0  0  0  0  0  0  0  0
  1  2  1  0  0  0  0 
  3  2  1  0  0  0  0 
  2  4  2  0  0  0  0 
  5  3  2  0  0  0  0 
  3  6  1  0  0  0  0 
  7  4  1  0  0  0  0 
  8  5  1  0  0  0  0 
  5  9  1  0  0  0  0 
 10  6  1  0  0  0  0 
  9  7  2  0  0  0  0 
  8 11  1  0  0  0  0 
 11 12  1  0  0  0  0 
 11 13  2  0  0  0  0 
 12 14  2  0  0  0  0 
 12 15  1  0  0  0  0 
 13 16  1  0  0  0  0 
 14 17  1  0  0  0  0 
 18 15  1  0  0  0  0 
 19 15  2  0  0  0  0 
 16 17  2  0  0  0  0 
M  END
> <Name>
Benzoic acid, 2-((3-chloro-2-(hydroxymethyl)phenyl)amino)-

> <Source>
Chemidplus3DMolFile

> <Tox>
2.063

> <CAS>
77605-72-2

$$$$

  CDK

 22 23  0  0  0  0  0  0  0  0999 V2000
    0.0274   -2.2957    1.3752 S   0  0  0  0  0  0  0  0  0  0  0  0
   -0.9159   -1.6666    0.1398 C   0  0  0  0  0  0  0  0  0  0  0  0
   -1.1427   -2.4088   -0.9706 N   0  0  0  0  0  0  0  0  0  0  0  0
   -1.5864   -0.3331    0.0640 C   0  0  0  0  0  0  0  0  0  0  0  0
   -1.2460   -1.8070   -2.2927 C   0  0  0  0  0  0  0  0  0  0  0  0
   -1.1880   -3.8639   -0.9297 C   0  0  0  0  0  0  0  0  0  0  0  0
   -1.1233    0.7698    0.6727 C   0  0  0  0  0  0  0  0  0  0  0  0
   -2.4272   -2.4030   -3.0463 C   0  0  0  0  0  0  0  0  0  0  0  0
   -2.3726   -4.3712   -1.7402 C   0  0  0  0  0  0  0  0  0  0  0  0
   -1.7799    2.0883    0.6130 C   0  0  0  0  0  0  0  0  0  0  0  0
   -2.3335   -3.8318   -3.0661 O   0  0  0  0  0  0  0  0  0  0  0  0
   -2.6806    2.3514   -0.4059 C   0  0  0  0  0  0  0  0  0  0  0  0
   -1.4831    3.0376    1.5771 C   0  0  0  0  0  0  0  0  0  0  0  0
   -3.3019    3.5990   -0.4622 C   0  0  0  0  0  0  0  0  0  0  0  0
   -2.1046    4.2851    1.5207 C   0  0  0  0  0  0  0  0  0  0  0  0
   -4.1884    3.8605   -1.4632 O   0  0  0  0  0  0  0  0  0  0  0  0
   -3.0140    4.5658    0.5011 C   0  0  0  0  0  0  0  0  0  0  0  0
   -1.8144    5.2207    2.4676 O   0  0  0  0  0  0  0  0  0  0  0  0
   -3.6629    4.4242   -2.6633 C   0  0  0  0  0  0  0  0  0  0  0  0
   -3.6212    5.7853    0.4457 O   0  0  0  0  0  0  0  0  0  0  0  0
   -0.7292    6.1047    2.1939 C   0  0  0  0  0  0  0  0  0  0  0  0
   -4.8567    5.9250    1.1433 C   0  0  0  0  0  0  0  0  0  0  0  0
  1  2  2  0  0  0  0 
  3  2  1  0  0  0  0 
  2  4  1  0  0  0  0 
  3  5  1  0  0  0  0 
  3  6  1  0  0  0  0 
  4  7  2  0  0  0  0 
  5  8  1  0  0  0  0 
  6  9  1  0  0  0  0 
 10  7  1  0  0  0  0 
 11  8  1  0  0  0  0 
 11  9  1  0  0  0  0 
 10 12  2  0  0  0  0 
 10 13  1  0  0  0  0 
 12 14  1  0  0  0  0 
 13 15  2  0  0  0  0 
 16 14  1  0  0  0  0 
 14 17  2  0  0  0  0 
 18 15  1  0  0  0  0 
 15 17  1  0  0  0  0 
 16 19  1  0  0  0  0 
 20 17  1  0  0  0  0 
 18 21  1  0  0  0  0 
 20 22  1  0  0  0  0 
M  END
> <Name>
Morpholine, 4-(3,4,5-trimethoxythiocinnamoyl)-

> <Source>
Chemidplus3DMolFile

> <Tox>
2.379

> <CAS>
77664-07-4

$$$$

  CDK

 22 24  0  0  0  0  0  0  0  0999 V2000
    4.3082   -2.4960    2.6937 S   0  0  0  0  0  0  0  0  0  0  0  0
    5.5303   -1.2131    2.4387 C   0  0  0  0  0  0  0  0  0  0  0  0
    2.9411   -1.7448    1.8306 C   0  0  0  0  0  0  0  0  0  0  0  0
    5.9394   -0.6993    1.1923 C   0  0  0  0  0  0  0  0  0  0  0  0
    6.1065   -0.6975    3.6161 C   0  0  0  0  0  0  0  0  0  0  0  0
    3.0159   -1.5330    0.4456 C   0  0  0  0  0  0  0  0  0  0  0  0
    1.8063   -1.3435    2.5450 C   0  0  0  0  0  0  0  0  0  0  0  0
    6.9049    0.3273    1.1682 C   0  0  0  0  0  0  0  0  0  0  0  0
    5.4644   -1.1658   -0.1542 C   0  0  0  0  0  0  0  0  0  0  0  0
    7.0614    0.3162    3.5702 C   0  0  0  0  0  0  0  0  0  0  0  0
    4.2135   -1.9931   -0.3403 C   0  0  0  0  0  0  0  0  0  0  0  0
    1.9486   -0.8951   -0.2029 C   0  0  0  0  0  0  0  0  0  0  0  0
    0.7494   -0.7179    1.8854 C   0  0  0  0  0  0  0  0  0  0  0  0
    7.4586    0.8311    2.3453 C   0  0  0  0  0  0  0  0  0  0  0  0
    6.1538   -0.9020   -1.1428 O   0  0  0  0  0  0  0  0  0  0  0  0
    0.8220   -0.4902    0.5136 C   0  0  0  0  0  0  0  0  0  0  0  0
    8.4732    1.9227    2.2868 C   0  0  0  0  0  0  0  0  0  0  0  0
   -0.3039    0.1895   -0.1897 C   0  0  0  0  0  0  0  0  0  0  0  0
    9.7582    1.5420    1.5237 C   0  0  0  0  0  0  0  0  0  0  0  0
    7.9198    3.2155    1.6774 C   0  0  0  0  0  0  0  0  0  0  0  0
    8.8356    4.2191    1.6330 O   0  0  0  0  0  0  0  0  0  0  0  0
    6.7767    3.3486    1.2599 O   0  0  0  0  0  0  0  0  0  0  0  0
  1  2  1  0  0  0  0 
  1  3  1  0  0  0  0 
  4  2  2  0  0  0  0 
  2  5  1  0  0  0  0 
  6  3  2  0  0  0  0 
  3  7  1  0  0  0  0 
  4  8  1  0  0  0  0 
  4  9  1  0  0  0  0 
 10  5  2  0  0  0  0 
 11  6  1  0  0  0  0 
  6 12  1  0  0  0  0 
  7 13  2  0  0  0  0 
 14  8  2  0  0  0  0 
 15  9  2  0  0  0  0 
 11  9  1  0  0  0  0 
 14 10  1  0  0  0  0 
 12 16  2  0  0  0  0 
 16 13  1  0  0  0  0 
 14 17  1  0  0  0  0 
 16 18  1  0  0  0  0 
 17 19  1  0  0  0  0 
 17 20  1  0  0  0  0 
 21 20  1  0  0  0  0 
 22 20  2  0  0  0  0 
M  END
> <Name>
Dibenzo(b,f)thiepin-2-acetic acid, 10,11-dihydro-alpha,8-dimethyl-11-oxo-

> <Source>
Chemidplus3DMolFile

> <Tox>
3.495

> <CAS>
77693-03-9

$$$$

  CDK

 19 23  0  0  0  0  0  0  0  0999 V2000
    1.1698    0.8922    0.0000 C   0  0  0  0  0  0  0  0  0  0  0  0
    1.3972    1.6761    0.0000 C   0  0  0  0  0  0  0  0  0  0  0  0
    0.3766    0.7266    0.0000 C   0  0  0  0  0  0  0  0  0  0  0  0
    0.8242    2.2763    0.0000 C   0  0  0  0  0  0  0  0  0  0  0  0
   -0.2088    1.3057    0.0000 C   0  0  0  0  0  0  0  0  0  0  0  0
    0.2023    0.0516    0.0000 N   0  0  0  0  0  0  0  0  0  0  0  0
    0.9077    3.0838    0.0000 Cl  0  0  0  0  0  0  0  0  0  0  0  0
    0.0229    2.0829    0.0000 C   0  0  0  0  0  0  0  0  0  0  0  0
   -0.3176    0.7266    0.0000 N   0  0  0  0  0  0  0  0  0  0  0  0
   -0.1070   -0.5968    0.0000 C   0  0  0  0  0  0  0  0  0  0  0  0
   -1.0884    0.4585    0.0000 N   0  0  0  0  0  0  0  0  0  0  0  0
   -0.4710   -1.5271    0.0000 C   0  0  0  0  0  0  0  0  0  0  0  0
   -1.0894   -0.3060    0.0000 C   0  0  0  0  0  0  0  0  0  0  0  0
    0.2995   -1.6415    0.0000 C   0  0  0  0  0  0  0  0  0  0  0  0
   -1.1163   -1.2462    0.0000 C   0  0  0  0  0  0  0  0  0  0  0  0
   -0.3993   -0.2884    0.0000 C   0  0  0  0  0  0  0  0  0  0  0  0
    1.1299   -1.6259    0.0000 N   0  0  0  0  0  0  0  0  0  0  0  0
    0.2995   -0.8001    0.0000 C   0  0  0  0  0  0  0  0  0  0  0  0
    1.1135   -0.8023    0.0000 N   0  0  0  0  0  0  0  0  0  0  0  0
  1  2  1  0  0  0  0 
  1  3  2  0  0  0  0 
  2  4  2  0  0  0  0 
  5  3  1  0  0  0  0 
  3  6  1  0  0  0  0 
  4  7  1  0  0  0  0 
  4  8  1  0  0  0  0 
  8  5  2  0  0  0  0 
  6  9  1  0  0  0  0 
  6 10  1  0  0  0  0 
  9 11  2  0  0  0  0 
 12 10  1  0  0  0  0 
 13 10  1  0  0  0  0 
 11 13  1  0  0  0  0 
 14 12  1  0  0  0  0 
 15 12  1  0  0  0  0 
 13 16  1  0  0  0  0 
 17 14  1  0  0  0  0 
 18 14  1  0  0  0  0 
 16 15  1  0  0  0  0 
 16 18  1  0  0  0  0 
 19 17  2  0  0  0  0 
 18 19  1  0  0  0  0 
M  END
> <Name>
4,7-Methano-1H-(1,2)diazeto(3,4-f)benzotriazole, 1-(4-chlorophenyl)-3a,4,4a,6a,7,7a-hexadydro-, (3a-alpha,4-beta,4a-alpha,6a-alpha,7-beta,7a-alpha)-

> <Source>
Smiles

> <Tox>
3.021

> <CAS>
77788-21-7

$$$$

  CDK

 40 44  0  0  0  0  0  0  0  0999 V2000
    0.4709   -5.0962    2.9997 O   0  0  0  0  0  0  0  0  0  0  0  0
    1.8343   -4.7029    3.2196 C   0  0  0  0  0  0  0  0  0  0  0  0
    0.3031   -6.4704    2.6250 C   0  0  0  0  0  0  0  0  0  0  0  0
    2.6698   -4.8632    2.0568 O   0  0  0  0  0  0  0  0  0  0  0  0
    2.4285   -5.5587    4.3491 C   0  0  0  0  0  0  0  0  0  0  0  0
    1.8318   -3.2256    3.6641 C   0  0  0  0  0  0  0  0  0  0  0  0
    0.8263   -7.3981    3.7370 C   0  0  0  0  0  0  0  0  0  0  0  0
   -1.1846   -6.6596    2.3461 C   0  0  0  0  0  0  0  0  0  0  0  0
    2.2746   -4.0679    0.9311 C   0  0  0  0  0  0  0  0  0  0  0  0
    2.2860   -7.0489    4.0538 C   0  0  0  0  0  0  0  0  0  0  0  0
    1.4171   -2.3119    2.5155 C   0  0  0  0  0  0  0  0  0  0  0  0
    0.7095   -8.8793    3.3792 C   0  0  0  0  0  0  0  0  0  0  0  0
   -2.0059   -6.4023    3.6081 C   0  0  0  0  0  0  0  0  0  0  0  0
   -1.6411   -5.7418    1.2134 C   0  0  0  0  0  0  0  0  0  0  0  0
    2.3035   -2.5927    1.3107 C   0  0  0  0  0  0  0  0  0  0  0  0
    3.2331   -4.3794   -0.2316 C   0  0  0  0  0  0  0  0  0  0  0  0
    1.6300   -0.9280    2.8432 O   0  0  0  0  0  0  0  0  0  0  0  0
    3.0104   -3.4987   -1.4332 C   0  0  0  0  0  0  0  0  0  0  0  0
    0.5918   -0.2005    3.3469 C   0  0  0  0  0  0  0  0  0  0  0  0
    2.1573   -3.7008   -2.4557 C   0  0  0  0  0  0  0  0  0  0  0  0
   -0.4715   -0.6435    3.7562 O   0  0  0  0  0  0  0  0  0  0  0  0
    0.9528    1.2769    3.2332 C   0  0  0  0  0  0  0  0  0  0  0  0
    1.9597   -2.6980   -3.5875 C   0  0  0  0  0  0  0  0  0  0  0  0
    1.2924   -4.9289   -2.5794 C   0  0  0  0  0  0  0  0  0  0  0  0
    0.3330    1.9032    1.9543 C   0  0  0  0  0  0  0  0  0  0  0  0
    0.5833    2.0076    4.4906 C   0  0  0  0  0  0  0  0  0  0  0  0
    2.1978   -1.1887   -3.3104 C   0  0  0  0  0  0  0  0  0  0  0  0
   -1.0344    1.5652    1.7933 O   0  0  0  0  0  0  0  0  0  0  0  0
    0.5104    3.4173    1.9460 C   0  0  0  0  0  0  0  0  0  0  0  0
    1.1615    1.5726    0.7381 C   0  0  0  0  0  0  0  0  0  0  0  0
    0.1846    3.2916    4.5047 C   0  0  0  0  0  0  0  0  0  0  0  0
    1.3184   -0.6780   -2.1902 C   0  0  0  0  0  0  0  0  0  0  0  0
    1.9182   -0.3845   -4.5845 C   0  0  0  0  0  0  0  0  0  0  0  0
    1.9168    3.5885    1.6867 O   0  0  0  0  0  0  0  0  0  0  0  0
    0.0290    4.1007    3.2346 C   0  0  0  0  0  0  0  0  0  0  0  0
    2.2609    2.5957    0.6868 C   0  0  0  0  0  0  0  0  0  0  0  0
    0.8850    0.6136   -0.1594 C   0  0  0  0  0  0  0  0  0  0  0  0
   -0.1809    3.9692    5.7956 C   0  0  0  0  0  0  0  0  0  0  0  0
    1.7014    0.2504   -1.2974 C   0  0  0  0  0  0  0  0  0  0  0  0
    0.6803    5.3639    3.3404 O   0  0  0  0  0  0  0  0  0  0  0  0
  1  2  1  0  0  0  0 
  1  3  1  0  0  0  0 
  4  2  1  0  0  0  0 
  2  5  1  0  0  0  0 
  2  6  1  0  0  0  0 
  3  7  1  0  0  0  0 
  3  8  1  0  0  0  0 
  4  9  1  0  0  0  0 
  5 10  1  0  0  0  0 
  6 11  1  0  0  0  0 
  7 10  1  0  0  0  0 
  7 12  1  0  0  0  0 
  8 13  1  0  0  0  0 
  8 14  1  0  0  0  0 
  9 15  1  0  0  0  0 
  9 16  1  0  0  0  0 
 17 11  1  0  0  0  0 
 11 15  1  0  0  0  0 
 16 18  1  0  0  0  0 
 17 19  1  0  0  0  0 
 18 20  2  0  0  0  0 
 21 19  2  0  0  0  0 
 22 19  1  0  0  0  0 
 20 23  1  0  0  0  0 
 20 24  1  0  0  0  0 
 25 22  1  0  0  0  0 
 22 26  1  0  0  0  0 
 23 27  1  0  0  0  0 
 28 25  1  0  0  0  0 
 25 29  1  0  0  0  0 
 25 30  1  0  0  0  0 
 26 31  2  0  0  0  0 
 27 32  1  0  0  0  0 
 27 33  1  0  0  0  0 
 34 29  1  0  0  0  0 
 29 35  1  0  0  0  0 
 30 36  1  0  0  0  0 
 30 37  2  0  0  0  0 
 35 31  1  0  0  0  0 
 31 38  1  0  0  0  0 
 39 32  2  0  0  0  0 
 34 36  1  0  0  0  0 
 40 35  1  0  0  0  0 
 37 39  1  0  0  0  0 
M  END
> <Name>
Milbemycin B, 5-O-demethyl-28-deoxy-6,28-epoxy-25-(1-methylethyl)-, (6R,25R)-

> <Source>
Chemidplus3DMolFile

> <Tox>
2.353

> <CAS>
77855-81-3

$$$$

  CDK

 19 21  0  0  0  0  0  0  0  0999 V2000
    2.7533    0.0000    0.0000 C   0  0  0  0  0  0  0  0  0  0  0  0
    2.0533    1.2133    0.0000 C   0  0  0  0  0  0  0  0  0  0  0  0
    0.6533    1.2133    0.0000 O   0  0  0  0  0  0  0  0  0  0  0  0
    2.7533    2.4267    0.0000 C   0  0  0  0  0  0  0  0  0  0  0  0
    4.1533    2.4267    0.0000 N   0  0  0  0  0  0  0  0  0  0  0  0
    2.0533    3.6400    0.0000 C   0  0  0  0  0  0  0  0  0  0  0  0
    4.8533    3.6400    0.0000 C   0  0  0  0  0  0  0  0  0  0  0  0
    4.8533    1.2133    0.0000 C   0  0  0  0  0  0  0  0  0  0  0  0
    0.6533    3.6400    0.0000 C   0  0  0  0  0  0  0  0  0  0  0  0
    2.7533    4.8533    0.0000 C   0  0  0  0  0  0  0  0  0  0  0  0
    6.2533    3.6400    0.0000 C   0  0  0  0  0  0  0  0  0  0  0  0
    6.2533    1.2133    0.0000 C   0  0  0  0  0  0  0  0  0  0  0  0
    0.0000    4.8533    0.0000 C   0  0  0  0  0  0  0  0  0  0  0  0
    2.0533    6.0667    0.0000 C   0  0  0  0  0  0  0  0  0  0  0  0
    6.9533    2.4267    0.0000 O   0  0  0  0  0  0  0  0  0  0  0  0
    0.6533    6.0667    0.0000 C   0  0  0  0  0  0  0  0  0  0  0  0
    2.4733    7.3733    0.0000 O   0  0  0  0  0  0  0  0  0  0  0  0
    0.2333    7.3733    0.0000 O   0  0  0  0  0  0  0  0  0  0  0  0
    1.3533    8.1667    0.0000 C   0  0  0  0  0  0  0  0  0  0  0  0
  1  2  1  0  0  0  0 
  2  3  1  0  0  0  0 
  2  4  1  0  0  0  0 
  4  5  1  0  0  0  0 
  4  6  1  0  0  0  0 
  5  7  1  0  0  0  0 
  5  8  1  0  0  0  0 
  6  9  1  0  0  0  0 
  6 10  2  0  0  0  0 
  7 11  1  0  0  0  0 
 12  8  1  0  0  0  0 
  9 13  2  0  0  0  0 
 14 10  1  0  0  0  0 
 11 15  1  0  0  0  0 
 15 12  1  0  0  0  0 
 13 16  1  0  0  0  0 
 17 14  1  0  0  0  0 
 16 14  2  0  0  0  0 
 16 18  1  0  0  0  0 
 19 17  1  0  0  0  0 
 18 19  1  0  0  0  0 
M  END
> <Name>
(+-)-erythro-alpha-Methyl-beta-(3,4-(methylenedioxy)phenyl)-4-morpholineethanol

> <Source>
IndexNet2DMolFile

> <Tox>
2.031

> <CAS>
78168-92-0

$$$$

  CDK

 20 20  0  0  0  0  0  0  0  0999 V2000
    0.6686   -1.6492    0.0449 C   0  0  0  0  0  0  0  0  0  0  0  0
   -0.5332   -2.3340    0.6511 C   0  0  0  0  0  0  0  0  0  0  0  0
    1.7826   -2.1498    0.0043 O   0  0  0  0  0  0  0  0  0  0  0  0
    0.5103   -0.3308   -0.4767 N   0  0  0  0  0  0  0  0  0  0  0  0
   -0.1851   -4.0353    0.9818 Cl  0  0  0  0  0  0  0  0  0  0  0  0
    1.5558    0.2822   -1.3513 C   0  0  0  0  0  0  0  0  0  0  0  0
   -0.8303    0.2389   -0.5759 C   0  0  0  0  0  0  0  0  0  0  0  0
    1.9848    1.4983   -0.8024 O   0  0  0  0  0  0  0  0  0  0  0  0
   -1.3750    0.9250    0.5304 C   0  0  0  0  0  0  0  0  0  0  0  0
   -1.5822    0.1292   -1.7592 C   0  0  0  0  0  0  0  0  0  0  0  0
    3.0680    1.3917    0.1370 C   0  0  0  0  0  0  0  0  0  0  0  0
   -2.6527    1.5087    0.4553 C   0  0  0  0  0  0  0  0  0  0  0  0
   -0.6872    0.8888    1.7410 O   0  0  0  0  0  0  0  0  0  0  0  0
   -2.8409    0.7277   -1.8258 C   0  0  0  0  0  0  0  0  0  0  0  0
   -1.0826   -0.6098   -2.9499 C   0  0  0  0  0  0  0  0  0  0  0  0
    4.3483    0.9213   -0.5449 C   0  0  0  0  0  0  0  0  0  0  0  0
    3.2295    2.7837    0.7340 C   0  0  0  0  0  0  0  0  0  0  0  0
   -3.3661    1.4097   -0.7385 C   0  0  0  0  0  0  0  0  0  0  0  0
   -3.2679    2.2092    1.6130 C   0  0  0  0  0  0  0  0  0  0  0  0
   -0.0967    2.1132    2.1210 C   0  0  0  0  0  0  0  0  0  0  0  0
  1  2  1  0  0  0  0 
  1  3  2  0  0  0  0 
  1  4  1  0  0  0  0 
  2  5  1  0  0  0  0 
  4  6  1  0  0  0  0 
  4  7  1  0  0  0  0 
  6  8  1  0  0  0  0 
  7  9  1  0  0  0  0 
  7 10  2  0  0  0  0 
  8 11  1  0  0  0  0 
  9 12  2  0  0  0  0 
  9 13  1  0  0  0  0 
 14 10  1  0  0  0  0 
 10 15  1  0  0  0  0 
 11 16  1  0  0  0  0 
 11 17  1  0  0  0  0 
 12 18  1  0  0  0  0 
 12 19  1  0  0  0  0 
 13 20  1  0  0  0  0 
 18 14  2  0  0  0  0 
M  END
> <Name>
Acetamide, 2-chloro-N-(2-methoxy-3,6-dimethylphenyl)-N-((1-methylethoxy)methyl)-

> <Source>
DougDB3DMolFile

> <Tox>
2.239

> <CAS>
78194-09-9

$$$$

  CDK

 16 17  0  0  0  0  0  0  0  0999 V2000
    4.6039   -3.9911    0.0000 C   0  0  0  0  0  0  0  0  0  0  0  0
    5.7569   -4.6523    0.0000 C   0  0  0  0  0  0  0  0  0  0  0  0
    3.4590   -4.6523    0.0000 N   0  0  0  0  0  0  0  0  0  0  0  0
    4.6039   -2.6607    0.0000 C   0  0  0  0  0  0  0  0  0  0  0  0
    2.3060   -3.9911    0.0000 C   0  0  0  0  0  0  0  0  0  0  0  0
    3.4590   -1.9915    0.0000 C   0  0  0  0  0  0  0  0  0  0  0  0
    5.7569   -1.9915    0.0000 C   0  0  0  0  0  0  0  0  0  0  0  0
    1.1530   -4.6523    0.0000 O   0  0  0  0  0  0  0  0  0  0  0  0
    2.3060   -2.6607    0.0000 C   0  0  0  0  0  0  0  0  0  0  0  0
    5.7569   -0.6612    0.0000 C   0  0  0  0  0  0  0  0  0  0  0  0
    6.9099   -2.6607    0.0000 C   0  0  0  0  0  0  0  0  0  0  0  0
    1.1530   -1.9915    0.0000 C   0  0  0  0  0  0  0  0  0  0  0  0
    6.9099   -0.0000    0.0000 C   0  0  0  0  0  0  0  0  0  0  0  0
    8.0629   -1.9915    0.0000 C   0  0  0  0  0  0  0  0  0  0  0  0
    0.0000   -1.3304    0.0000 N   0  0  0  0  0  0  0  0  0  0  0  0
    8.0629   -0.6612    0.0000 N   0  0  0  0  0  0  0  0  0  0  0  0
  1  2  1  0  0  0  0 
  1  3  1  0  0  0  0 
  1  4  2  0  0  0  0 
  3  5  1  0  0  0  0 
  6  4  1  0  0  0  0 
  4  7  1  0  0  0  0 
  5  8  2  0  0  0  0 
  5  9  1  0  0  0  0 
  9  6  2  0  0  0  0 
  7 10  2  0  0  0  0 
  7 11  1  0  0  0  0 
  9 12  1  0  0  0  0 
 10 13  1  0  0  0  0 
 14 11  2  0  0  0  0 
 12 15  3  0  0  0  0 
 13 16  2  0  0  0  0 
 16 14  1  0  0  0  0 
M  END
> <Name>
(3,4'-Bipyridine)-5-carbonitrile, 1,6-dihydro-2-methyl-6-oxo-

> <Source>
DSSTox2DMolFile

> <Tox>
3.366

> <CAS>
78415-72-2

$$$$

  CDK

 19 19  0  0  0  0  0  0  0  0999 V2000
    3.4656   -1.3301    0.0000 C   0  0  0  0  0  0  0  0  0  0  0  0
    3.4656   -0.0000    0.0000 O   0  0  0  0  0  0  0  0  0  0  0  0
    4.6184   -2.0025    0.0000 N   0  0  0  0  0  0  0  0  0  0  0  0
    2.3055   -2.0025    0.0000 N   0  0  0  0  0  0  0  0  0  0  0  0
    4.6184   -3.3326    0.0000 C   0  0  0  0  0  0  0  0  0  0  0  0
    5.7711   -1.3301    0.0000 C   0  0  0  0  0  0  0  0  0  0  0  0
    1.1528   -1.3301    0.0000 C   0  0  0  0  0  0  0  0  0  0  0  0
    3.5395   -4.1011    0.0000 N   0  0  0  0  0  0  0  0  0  0  0  0
    5.6899   -4.1011    0.0000 C   0  0  0  0  0  0  0  0  0  0  0  0
    5.7711   -0.0000    0.0000 O   0  0  0  0  0  0  0  0  0  0  0  0
    0.0000   -2.0025    0.0000 O   0  0  0  0  0  0  0  0  0  0  0  0
    3.9460   -5.3721    0.0000 C   0  0  0  0  0  0  0  0  0  0  0  0
    2.2759   -3.7021    0.0000 C   0  0  0  0  0  0  0  0  0  0  0  0
    5.2761   -5.3721    0.0000 N   0  0  0  0  0  0  0  0  0  0  0  0
    6.9535   -3.7021    0.0000 O   0  0  0  0  0  0  0  0  0  0  0  0
    3.1775   -6.4436    0.0000 O   0  0  0  0  0  0  0  0  0  0  0  0
    1.2858   -4.5814    0.0000 O   0  0  0  0  0  0  0  0  0  0  0  0
    6.0593   -6.4436    0.0000 C   0  0  0  0  0  0  0  0  0  0  0  0
    7.3894   -6.3180    0.0000 O   0  0  0  0  0  0  0  0  0  0  0  0
  1  2  2  0  0  0  0 
  1  3  1  0  0  0  0 
  1  4  1  0  0  0  0 
  3  5  1  0  0  0  0 
  3  6  1  0  0  0  0 
  4  7  1  0  0  0  0 
  8  5  1  0  0  0  0 
  9  5  1  0  0  0  0 
  6 10  1  0  0  0  0 
  7 11  1  0  0  0  0 
  8 12  1  0  0  0  0 
  8 13  1  0  0  0  0 
 14  9  1  0  0  0  0 
  9 15  2  0  0  0  0 
 14 12  1  0  0  0  0 
 12 16  2  0  0  0  0 
 13 17  1  0  0  0  0 
 14 18  1  0  0  0  0 
 18 19  1  0  0  0  0 
M  END
> <Name>
Urea, N-(1,3-bis(hydroxymethyl)-2,5-dioxo-4-imidazolidinyl)-N,N'-bis(hydroxymethyl)-

> <Source>
DSSTox2DMolFile

> <Tox>
2.029

> <CAS>
78491-02-8

$$$$

  CDK

 18 19  0  0  0  0  0  0  0  0999 V2000
    5.9700    2.4253    0.0000 C   0  0  0  0  0  0  0  0  0  0  0  0
    4.5708    2.6585    0.0000 C   0  0  0  0  0  0  0  0  0  0  0  0
    4.1044    3.9645    0.0000 C   0  0  0  0  0  0  0  0  0  0  0  0
    2.7052    4.1977    0.0000 C   0  0  0  0  0  0  0  0  0  0  0  0
    1.3526    3.9645    0.0000 C   0  0  0  0  0  0  0  0  0  0  0  0
    3.2182    5.5503    0.0000 C   0  0  0  0  0  0  0  0  0  0  0  0
    2.7052    2.7984    0.0000 C   0  0  0  0  0  0  0  0  0  0  0  0
    0.4198    5.0372    0.0000 C   0  0  0  0  0  0  0  0  0  0  0  0
    2.2854    6.6230    0.0000 C   0  0  0  0  0  0  0  0  0  0  0  0
    4.5708    5.7835    0.0000 C   0  0  0  0  0  0  0  0  0  0  0  0
    3.9178    2.0988    0.0000 C   0  0  0  0  0  0  0  0  0  0  0  0
    1.4925    2.0988    0.0000 C   0  0  0  0  0  0  0  0  0  0  0  0
    0.9328    6.3431    0.0000 N   0  0  0  0  0  0  0  0  0  0  0  0
    3.9178    0.6996    0.0000 C   0  0  0  0  0  0  0  0  0  0  0  0
    1.4925    0.6996    0.0000 C   0  0  0  0  0  0  0  0  0  0  0  0
    0.0000    7.4159    0.0000 C   0  0  0  0  0  0  0  0  0  0  0  0
    2.7052    0.0000    0.0000 C   0  0  0  0  0  0  0  0  0  0  0  0
    0.2798    0.0000    0.0000 O   0  0  0  0  0  0  0  0  0  0  0  0
  1  2  1  0  0  0  0 
  2  3  1  0  0  0  0 
  3  4  1  0  0  0  0 
  4  5  1  0  0  0  0 
  4  6  1  0  0  0  0 
  4  7  1  0  0  0  0 
  5  8  1  0  0  0  0 
  9  6  1  0  0  0  0 
  6 10  1  0  0  0  0 
  7 11  2  0  0  0  0 
  7 12  1  0  0  0  0 
  8 13  1  0  0  0  0 
 13  9  1  0  0  0  0 
 11 14  1  0  0  0  0 
 15 12  2  0  0  0  0 
 13 16  1  0  0  0  0 
 14 17  2  0  0  0  0 
 17 15  1  0  0  0  0 
 15 18  1  0  0  0  0 
M  END
> <Name>
Phenol, 3-(1,3-dimethyl-4-propyl-4-piperidinyl)-, trans-(+-)-

> <Source>
IndexNet2DMolFile

> <Tox>
2.445

> <CAS>
79201-85-7

$$$$

  CDK

 15 16  0  0  0  0  0  0  0  0999 V2000
    0.2374    0.5896   -0.2134 S   0  0  0  0  0  0  0  0  0  0  0  0
   -0.4341   -1.0057    0.1047 C   0  0  0  0  0  0  0  0  0  0  0  0
   -1.3513    1.2583    0.0564 C   0  0  0  0  0  0  0  0  0  0  0  0
    0.4136   -2.0496    0.0354 N   0  0  0  0  0  0  0  0  0  0  0  0
   -1.7011   -1.0314    0.3812 N   0  0  0  0  0  0  0  0  0  0  0  0
   -1.7740    2.8599   -0.0265 S   0  0  0  0  0  0  0  0  0  0  0  0
   -2.2082    0.2299    0.3534 N   0  0  0  0  0  0  0  0  0  0  0  0
    0.0063   -3.4180    0.2728 C   0  0  0  0  0  0  0  0  0  0  0  0
    1.1264   -4.3273    0.1578 N   0  0  0  0  0  0  0  0  0  0  0  0
    1.0197   -5.6559    0.3483 C   0  0  0  0  0  0  0  0  0  0  0  0
    2.4882   -6.6083    0.1659 S   0  0  0  0  0  0  0  0  0  0  0  0
   -0.0463   -6.3292    0.6530 N   0  0  0  0  0  0  0  0  0  0  0  0
    1.5526   -8.0326    0.5396 C   0  0  0  0  0  0  0  0  0  0  0  0
    0.2539   -7.6512    0.7587 N   0  0  0  0  0  0  0  0  0  0  0  0
    2.1171   -9.5900    0.6205 S   0  0  0  0  0  0  0  0  0  0  0  0
  1  2  1  0  0  0  0 
  1  3  1  0  0  0  0 
  4  2  1  0  0  0  0 
  5  2  2  0  0  0  0 
  6  3  2  0  0  0  0 
  7  3  1  0  0  0  0 
  4  8  1  0  0  0  0 
  5  7  1  0  0  0  0 
  9  8  1  0  0  0  0 
  9 10  1  0  0  0  0 
 11 10  1  0  0  0  0 
 12 10  2  0  0  0  0 
 11 13  1  0  0  0  0 
 12 14  1  0  0  0  0 
 15 13  2  0  0  0  0 
 14 13  1  0  0  0  0 
M  END
> <Name>
1,3,4-Thiadiazole-2(3H)-thione, 5,5'-(methylenediimino)bis-

> <Source>
Chemidplus3DMolFile

> <Tox>
1.778

> <CAS>
79319-85-0

$$$$

  CDK

 12 11  0  0  0  0  0  0  0  0999 V2000
    1.9176   -2.5946   -1.2920 S   0  0  0  0  0  0  0  0  0  0  0  0
    0.0254   -2.1388   -1.3782 P   0  0  0  0  0  0  0  0  0  0  0  0
   -0.4361   -1.1592   -2.5874 O   0  0  0  0  0  0  0  0  0  0  0  0
   -0.6015   -1.3758   -0.0852 O   0  0  0  0  0  0  0  0  0  0  0  0
   -1.0163   -3.3754   -1.5589 O   0  0  0  0  0  0  0  0  0  0  0  0
   -0.0767   -1.4806   -3.9284 C   0  0  0  0  0  0  0  0  0  0  0  0
    0.0269   -0.2081    0.4161 C   0  0  0  0  0  0  0  0  0  0  0  0
   -1.1883   -4.3104   -0.5072 C   0  0  0  0  0  0  0  0  0  0  0  0
   -0.5677   -0.3860   -4.8814 C   0  0  0  0  0  0  0  0  0  0  0  0
   -0.6714   -2.8371   -4.2817 C   0  0  0  0  0  0  0  0  0  0  0  0
    0.0547    0.9763   -4.5634 C   0  0  0  0  0  0  0  0  0  0  0  0
   -0.4099    2.0419   -5.5438 C   0  0  0  0  0  0  0  0  0  0  0  0
  1  2  2  0  0  0  0 
  2  3  1  0  0  0  0 
  2  4  1  0  0  0  0 
  2  5  1  0  0  0  0 
  3  6  1  0  0  0  0 
  4  7  1  0  0  0  0 
  5  8  1  0  0  0  0 
  6  9  1  0  0  0  0 
  6 10  1  0  0  0  0 
  9 11  1  0  0  0  0 
 11 12  1  0  0  0  0 
M  END
> <Name>
Phosphorothioic acid, O,O-dimethyl S-pentyl ester

> <Source>
Chemidplus3DMolFile

> <Tox>
2.834

> <CAS>
79985-89-0

$$$$

  CDK

 10  9  0  0  0  0  0  0  0  0999 V2000
    0.8644   -4.7126   -0.0720 S   0  0  0  0  0  0  0  0  0  0  0  0
    0.6887   -2.6964   -0.6379 P   0  0  0  0  0  0  0  0  0  0  0  0
    2.5485   -4.8859    0.5504 C   0  0  0  0  0  0  0  0  0  0  0  0
    0.8541   -1.7560    0.6784 O   0  0  0  0  0  0  0  0  0  0  0  0
   -0.8260   -2.3670   -1.1280 O   0  0  0  0  0  0  0  0  0  0  0  0
    1.7010   -2.3656   -1.7040 O   0  0  0  0  0  0  0  0  0  0  0  0
    2.8091   -6.3384    0.9306 C   0  0  0  0  0  0  0  0  0  0  0  0
    2.7559   -3.9541    1.7383 C   0  0  0  0  0  0  0  0  0  0  0  0
    0.7182   -0.3523    0.5359 C   0  0  0  0  0  0  0  0  0  0  0  0
   -1.9211   -2.6111   -0.2623 C   0  0  0  0  0  0  0  0  0  0  0  0
  1  2  1  0  0  0  0 
  1  3  1  0  0  0  0 
  2  4  1  0  0  0  0 
  2  5  1  0  0  0  0 
  2  6  2  0  0  0  0 
  3  7  1  0  0  0  0 
  3  8  1  0  0  0  0 
  4  9  1  0  0  0  0 
  5 10  1  0  0  0  0 
M  END
> <Name>
Phosphorothioic acid, O,O-dimethyl S-isopropyl ester

> <Source>
Chemidplus3DMolFile

> <Tox>
3.232

> <CAS>
79985-91-4

$$$$

  CDK

 11 10  0  0  0  0  0  0  0  0999 V2000
    0.8644   -4.7126   -0.0720 S   0  0  0  0  0  0  0  0  0  0  0  0
   -0.5011   -5.4149    1.3628 P   0  0  0  0  0  0  0  0  0  0  0  0
    0.5102   -5.6577   -1.5669 C   0  0  0  0  0  0  0  0  0  0  0  0
   -0.2008   -4.6884    2.7862 O   0  0  0  0  0  0  0  0  0  0  0  0
   -0.2303   -6.9832    1.6946 O   0  0  0  0  0  0  0  0  0  0  0  0
   -1.9140   -5.1832    0.8928 O   0  0  0  0  0  0  0  0  0  0  0  0
    0.7178   -7.1452   -1.2681 C   0  0  0  0  0  0  0  0  0  0  0  0
    1.4704   -5.1977   -2.6676 C   0  0  0  0  0  0  0  0  0  0  0  0
   -0.9400   -5.3940   -1.9823 C   0  0  0  0  0  0  0  0  0  0  0  0
    1.0895   -4.8159    3.3590 C   0  0  0  0  0  0  0  0  0  0  0  0
   -0.9980   -7.6415    2.6873 C   0  0  0  0  0  0  0  0  0  0  0  0
  1  2  1  0  0  0  0 
  1  3  1  0  0  0  0 
  2  4  1  0  0  0  0 
  2  5  1  0  0  0  0 
  2  6  2  0  0  0  0 
  3  7  1  0  0  0  0 
  3  8  1  0  0  0  0 
  3  9  1  0  0  0  0 
  4 10  1  0  0  0  0 
  5 11  1  0  0  0  0 
M  END
> <Name>
Phosphorothioic acid, S-tert-butyl O,O-dimethyl ester

> <Source>
Chemidplus3DMolFile

> <Tox>
3.495

> <CAS>
79985-92-5

$$$$

  CDK

 27 28  0  0  0  0  0  0  0  0999 V2000
   -0.9662    1.4503    1.9576 O   0  0  0  0  0  0  0  0  0  0  0  0
    0.3895    1.4719    1.5018 C   0  0  0  0  0  0  0  0  0  0  0  0
    0.6927    0.1257    0.8397 C   0  0  0  0  0  0  0  0  0  0  0  0
    1.2974    1.7792    2.6907 C   0  0  0  0  0  0  0  0  0  0  0  0
    2.0756    0.0412    0.3746 N   0  0  0  0  0  0  0  0  0  0  0  0
    0.9559    3.0601    3.2112 O   0  0  0  0  0  0  0  0  0  0  0  0
    2.2569    0.9957   -0.6200 N   0  0  0  0  0  0  0  0  0  0  0  0
    2.3516   -1.2735   -0.2011 C   0  0  0  0  0  0  0  0  0  0  0  0
    1.9621    3.7683    3.8119 C   0  0  0  0  0  0  0  0  0  0  0  0
    3.2038    1.9696   -0.4224 C   0  0  0  0  0  0  0  0  0  0  0  0
    2.1277   -2.3651    0.8416 C   0  0  0  0  0  0  0  0  0  0  0  0
    3.7819   -1.3061   -0.7301 C   0  0  0  0  0  0  0  0  0  0  0  0
    2.3428    5.0192    3.3260 C   0  0  0  0  0  0  0  0  0  0  0  0
    2.6087    3.2253    4.9223 C   0  0  0  0  0  0  0  0  0  0  0  0
    3.9855    2.1434    0.5939 N   0  0  0  0  0  0  0  0  0  0  0  0
    3.3699    5.7270    3.9505 C   0  0  0  0  0  0  0  0  0  0  0  0
    1.6622    5.6161    2.1386 C   0  0  0  0  0  0  0  0  0  0  0  0
    3.6355    3.9331    5.5469 C   0  0  0  0  0  0  0  0  0  0  0  0
    4.8658    3.2037    0.5658 C   0  0  0  0  0  0  0  0  0  0  0  0
    4.0162    5.1838    5.0610 C   0  0  0  0  0  0  0  0  0  0  0  0
    4.9907    4.0178   -0.3450 O   0  0  0  0  0  0  0  0  0  0  0  0
    5.7329    3.3380    1.7723 C   0  0  0  0  0  0  0  0  0  0  0  0
    5.6151    2.4256    2.8209 C   0  0  0  0  0  0  0  0  0  0  0  0
    6.6618    4.3756    1.8518 C   0  0  0  0  0  0  0  0  0  0  0  0
    6.4260    2.5508    3.9489 C   0  0  0  0  0  0  0  0  0  0  0  0
    7.4728    4.5007    2.9799 C   0  0  0  0  0  0  0  0  0  0  0  0
    7.3548    3.5883    4.0284 C   0  0  0  0  0  0  0  0  0  0  0  0
  1  2  1  0  0  0  0 
  3  2  1  0  0  0  0 
  2  4  1  0  0  0  0 
  5  3  1  0  0  0  0 
  6  4  1  0  0  0  0 
  5  7  1  0  0  0  0 
  5  8  1  0  0  0  0 
  6  9  1  0  0  0  0 
  7 10  1  0  0  0  0 
  8 11  1  0  0  0  0 
  8 12  1  0  0  0  0 
  9 13  1  0  0  0  0 
  9 14  2  0  0  0  0 
 15 10  2  0  0  0  0 
 13 16  2  0  0  0  0 
 13 17  1  0  0  0  0 
 14 18  1  0  0  0  0 
 15 19  1  0  0  0  0 
 16 20  1  0  0  0  0 
 18 20  2  0  0  0  0 
 21 19  2  0  0  0  0 
 19 22  1  0  0  0  0 
 22 23  2  0  0  0  0 
 22 24  1  0  0  0  0 
 23 25  1  0  0  0  0 
 24 26  2  0  0  0  0 
 25 27  2  0  0  0  0 
 26 27  1  0  0  0  0 
M  END
> <Name>
Benzamide, N-(((2-hydroxy-3-(2-methylphenoxy)propyl)(1-methylethyl)amino)iminomethyl)-

> <Source>
Chemidplus3DMolFile

> <Tox>
2.100

> <CAS>
80176-21-2

$$$$

  CDK

 20 21  0  0  0  0  0  0  0  0999 V2000
    0.0000    1.0727    0.0000 O   0  0  0  0  0  0  0  0  0  0  0  0
    1.3992    1.2593    0.0000 C   0  0  0  0  0  0  0  0  0  0  0  0
    2.1921    0.0933    0.0000 O   0  0  0  0  0  0  0  0  0  0  0  0
    1.9589    2.5186    0.0000 C   0  0  0  0  0  0  0  0  0  0  0  0
    1.2593    3.7313    0.0000 C   0  0  0  0  0  0  0  0  0  0  0  0
    3.3115    2.7984    0.0000 N   0  0  0  0  0  0  0  0  0  0  0  0
    2.1921    4.7574    0.0000 S   0  0  0  0  0  0  0  0  0  0  0  0
    3.4514    4.1977    0.0000 C   0  0  0  0  0  0  0  0  0  0  0  0
    4.3842    1.8656    0.0000 C   0  0  0  0  0  0  0  0  0  0  0  0
    4.6641    4.8973    0.0000 C   0  0  0  0  0  0  0  0  0  0  0  0
    4.0577    0.5130    0.0000 O   0  0  0  0  0  0  0  0  0  0  0  0
    5.6902    2.2854    0.0000 C   0  0  0  0  0  0  0  0  0  0  0  0
    5.8767    4.1977    0.0000 C   0  0  0  0  0  0  0  0  0  0  0  0
    4.6641    6.2965    0.0000 C   0  0  0  0  0  0  0  0  0  0  0  0
    6.7163    1.3526    0.0000 C   0  0  0  0  0  0  0  0  0  0  0  0
    7.0894    4.8973    0.0000 C   0  0  0  0  0  0  0  0  0  0  0  0
    5.8767    6.9961    0.0000 C   0  0  0  0  0  0  0  0  0  0  0  0
    3.4514    6.9961    0.0000 O   0  0  0  0  0  0  0  0  0  0  0  0
    6.4364    0.0000    0.0000 S   0  0  0  0  0  0  0  0  0  0  0  0
    7.0894    6.2965    0.0000 C   0  0  0  0  0  0  0  0  0  0  0  0
  1  2  1  0  0  0  0 
  2  3  2  0  0  0  0 
  2  4  1  0  0  0  0 
  4  5  1  0  0  0  0 
  4  6  1  0  0  0  0 
  5  7  1  0  0  0  0 
  8  6  1  0  0  0  0 
  6  9  1  0  0  0  0 
  7  8  1  0  0  0  0 
  8 10  1  0  0  0  0 
  9 11  2  0  0  0  0 
  9 12  1  0  0  0  0 
 10 13  2  0  0  0  0 
 10 14  1  0  0  0  0 
 12 15  1  0  0  0  0 
 13 16  1  0  0  0  0 
 17 14  2  0  0  0  0 
 14 18  1  0  0  0  0 
 15 19  1  0  0  0  0 
 16 20  2  0  0  0  0 
 20 17  1  0  0  0  0 
M  END
> <Name>
4-Thiazolidinecarboxylic acid, 2-(2-hydroxyphenyl)-3-(3-mercapto-1-oxopropyl)-, (2R-cis)-

> <Source>
IndexNet2DMolFile

> <Tox>
1.578

> <CAS>
80830-42-8

$$$$

  CDK

 28 31  0  0  0  0  0  0  0  0999 V2000
   -0.7725    1.4540    0.9975 Cl  0  0  0  0  0  0  0  0  0  0  0  0
   -0.5077    0.0425    1.9575 C   0  0  0  0  0  0  0  0  0  0  0  0
    0.2818   -1.0189    1.4657 C   0  0  0  0  0  0  0  0  0  0  0  0
   -1.0910   -0.0205    3.2230 C   0  0  0  0  0  0  0  0  0  0  0  0
    0.8790   -0.9856    0.2006 N   0  0  0  0  0  0  0  0  0  0  0  0
    0.4615   -2.1446    2.2956 C   0  0  0  0  0  0  0  0  0  0  0  0
   -0.8979   -1.1454    4.0249 C   0  0  0  0  0  0  0  0  0  0  0  0
    0.5393   -2.0105   -0.7911 C   0  0  0  0  0  0  0  0  0  0  0  0
    2.2277   -0.4160    0.0891 C   0  0  0  0  0  0  0  0  0  0  0  0
   -0.1217   -2.2074    3.5612 C   0  0  0  0  0  0  0  0  0  0  0  0
    0.8763   -1.5246   -2.2030 C   0  0  0  0  0  0  0  0  0  0  0  0
    2.5094    0.0191   -1.3508 C   0  0  0  0  0  0  0  0  0  0  0  0
    2.2740   -1.0845   -2.2901 N   0  0  0  0  0  0  0  0  0  0  0  0
    2.5985   -0.6737   -3.6556 C   0  0  0  0  0  0  0  0  0  0  0  0
    2.4212   -1.8464   -4.6185 C   0  0  0  0  0  0  0  0  0  0  0  0
    2.7648   -1.4407   -6.0535 C   0  0  0  0  0  0  0  0  0  0  0  0
    2.6255   -2.6195   -7.0285 C   0  0  0  0  0  0  0  0  0  0  0  0
    2.9956   -2.2443   -8.4241 C   0  0  0  0  0  0  0  0  0  0  0  0
    2.0218   -1.7526   -9.2947 C   0  0  0  0  0  0  0  0  0  0  0  0
    4.3166   -2.3742   -8.8523 C   0  0  0  0  0  0  0  0  0  0  0  0
    2.3621   -1.4055  -10.6064 C   0  0  0  0  0  0  0  0  0  0  0  0
    4.6684   -2.0177  -10.1539 C   0  0  0  0  0  0  0  0  0  0  0  0
    1.3550   -0.7854  -11.5314 C   0  0  0  0  0  0  0  0  0  0  0  0
    3.6897   -1.5439  -11.0308 C   0  0  0  0  0  0  0  0  0  0  0  0
    1.6874   -1.0970  -12.9829 C   0  0  0  0  0  0  0  0  0  0  0  0
    4.0527   -1.1775  -12.3392 N   0  0  0  0  0  0  0  0  0  0  0  0
    3.1428   -0.8430  -13.3238 C   0  0  0  0  0  0  0  0  0  0  0  0
    3.4786   -0.4543  -14.4425 O   0  0  0  0  0  0  0  0  0  0  0  0
  1  2  1  0  0  0  0 
  3  2  1  0  0  0  0 
  2  4  2  0  0  0  0 
  5  3  1  0  0  0  0 
  3  6  2  0  0  0  0 
  4  7  1  0  0  0  0 
  5  8  1  0  0  0  0 
  5  9  1  0  0  0  0 
  6 10  1  0  0  0  0 
 10  7  2  0  0  0  0 
 11  8  1  0  0  0  0 
 12  9  1  0  0  0  0 
 13 11  1  0  0  0  0 
 13 12  1  0  0  0  0 
 13 14  1  0  0  0  0 
 14 15  1  0  0  0  0 
 15 16  1  0  0  0  0 
 16 17  1  0  0  0  0 
 17 18  1  0  0  0  0 
 18 19  2  0  0  0  0 
 18 20  1  0  0  0  0 
 21 19  1  0  0  0  0 
 20 22  2  0  0  0  0 
 21 23  1  0  0  0  0 
 21 24  2  0  0  0  0 
 24 22  1  0  0  0  0 
 23 25  1  0  0  0  0 
 26 24  1  0  0  0  0 
 25 27  1  0  0  0  0 
 26 27  1  0  0  0  0 
 28 27  2  0  0  0  0 
M  END
> <Name>
2(1H)-Quinolinone, 3,4-dihydro-6-(4-(4-(2-chlorophenyl)-1-piperazinyl)butyl)-

> <Source>
Chemidplus3DMolFile

> <Tox>
2.901

> <CAS>
80834-61-3

$$$$

  CDK

 27 30  0  0  0  0  0  0  0  0999 V2000
    3.4737    4.9618  -12.8011 O   0  0  0  0  0  0  0  0  0  0  0  0
    3.2241    4.6188  -11.6473 C   0  0  0  0  0  0  0  0  0  0  0  0
    2.2906    3.6549  -11.3195 N   0  0  0  0  0  0  0  0  0  0  0  0
    3.9482    5.2526  -10.5115 C   0  0  0  0  0  0  0  0  0  0  0  0
    2.0115    3.2674   -9.9963 C   0  0  0  0  0  0  0  0  0  0  0  0
    3.6985    4.8994   -9.2454 C   0  0  0  0  0  0  0  0  0  0  0  0
    2.7022    3.8752   -8.9412 C   0  0  0  0  0  0  0  0  0  0  0  0
    1.0521    2.2843   -9.7470 C   0  0  0  0  0  0  0  0  0  0  0  0
    2.4247    3.4901   -7.6265 C   0  0  0  0  0  0  0  0  0  0  0  0
    0.7810    1.9059   -8.4324 C   0  0  0  0  0  0  0  0  0  0  0  0
    1.4683    2.5112   -7.3896 C   0  0  0  0  0  0  0  0  0  0  0  0
    1.1706    2.0976   -5.9710 C   0  0  0  0  0  0  0  0  0  0  0  0
    2.0644    0.9404   -5.5198 C   0  0  0  0  0  0  0  0  0  0  0  0
    1.7295    0.5048   -4.0916 C   0  0  0  0  0  0  0  0  0  0  0  0
    2.5985   -0.6737   -3.6556 C   0  0  0  0  0  0  0  0  0  0  0  0
    2.2568   -1.0796   -2.2928 N   0  0  0  0  0  0  0  0  0  0  0  0
    2.4958    0.0217   -1.3522 C   0  0  0  0  0  0  0  0  0  0  0  0
    3.0403   -2.2556   -1.8942 C   0  0  0  0  0  0  0  0  0  0  0  0
    2.0891   -0.3714    0.0702 C   0  0  0  0  0  0  0  0  0  0  0  0
    2.6507   -2.7248   -0.4906 C   0  0  0  0  0  0  0  0  0  0  0  0
    2.7505   -1.6177    0.4687 N   0  0  0  0  0  0  0  0  0  0  0  0
    2.8766   -1.9332    1.8262 C   0  0  0  0  0  0  0  0  0  0  0  0
    1.9213   -1.4950    2.7652 C   0  0  0  0  0  0  0  0  0  0  0  0
    3.9629   -2.6986    2.2954 C   0  0  0  0  0  0  0  0  0  0  0  0
    2.0475   -1.8091    4.1183 C   0  0  0  0  0  0  0  0  0  0  0  0
    4.0889   -3.0127    3.6486 C   0  0  0  0  0  0  0  0  0  0  0  0
    3.1312   -2.5679    4.5600 C   0  0  0  0  0  0  0  0  0  0  0  0
  1  2  2  0  0  0  0 
  3  2  1  0  0  0  0 
  4  2  1  0  0  0  0 
  3  5  1  0  0  0  0 
  6  4  2  0  0  0  0 
  7  5  2  0  0  0  0 
  5  8  1  0  0  0  0 
  7  6  1  0  0  0  0 
  9  7  1  0  0  0  0 
 10  8  2  0  0  0  0 
 11  9  2  0  0  0  0 
 11 10  1  0  0  0  0 
 12 11  1  0  0  0  0 
 13 12  1  0  0  0  0 
 14 13  1  0  0  0  0 
 15 14  1  0  0  0  0 
 16 15  1  0  0  0  0 
 16 17  1  0  0  0  0 
 16 18  1  0  0  0  0 
 17 19  1  0  0  0  0 
 18 20  1  0  0  0  0 
 21 19  1  0  0  0  0 
 21 20  1  0  0  0  0 
 21 22  1  0  0  0  0 
 22 23  2  0  0  0  0 
 22 24  1  0  0  0  0 
 23 25  1  0  0  0  0 
 24 26  2  0  0  0  0 
 25 27  2  0  0  0  0 
 26 27  1  0  0  0  0 
M  END
> <Name>
2(1H)-Quinolinone, 6-(4-(4-phenyl-1-piperazinyl)butyl)-

> <Source>
Chemidplus3DMolFile

> <Tox>
2.859

> <CAS>
80834-79-3

$$$$

  CDK

 21 21  0  0  0  0  0  0  0  0999 V2000
   16.7907    0.0000    0.0000 C   0  0  0  0  0  0  0  0  0  0  0  0
   15.3915    0.0000    0.0000 C   0  0  0  0  0  0  0  0  0  0  0  0
   14.6918    1.2127    0.0000 C   0  0  0  0  0  0  0  0  0  0  0  0
   13.2926    1.2127    0.0000 C   0  0  0  0  0  0  0  0  0  0  0  0
   12.5930    2.4253    0.0000 C   0  0  0  0  0  0  0  0  0  0  0  0
   11.1938    2.4253    0.0000 C   0  0  0  0  0  0  0  0  0  0  0  0
   10.4942    3.6380    0.0000 C   0  0  0  0  0  0  0  0  0  0  0  0
    9.0949    3.6380    0.0000 C   0  0  0  0  0  0  0  0  0  0  0  0
    8.3953    4.8506    0.0000 C   0  0  0  0  0  0  0  0  0  0  0  0
    6.9961    4.8506    0.0000 C   0  0  0  0  0  0  0  0  0  0  0  0
    6.2965    6.0633    0.0000 C   0  0  0  0  0  0  0  0  0  0  0  0
    4.8973    6.0633    0.0000 C   0  0  0  0  0  0  0  0  0  0  0  0
    4.1977    7.2760    0.0000 C   0  0  0  0  0  0  0  0  0  0  0  0
    2.7984    7.2760    0.0000 N   0  0  0  0  0  0  0  0  0  0  0  0
    2.0988    6.0633    0.0000 C   0  0  0  0  0  0  0  0  0  0  0  0
    2.0988    8.4886    0.0000 C   0  0  0  0  0  0  0  0  0  0  0  0
    0.6996    6.0633    0.0000 C   0  0  0  0  0  0  0  0  0  0  0  0
    0.6996    8.4886    0.0000 C   0  0  0  0  0  0  0  0  0  0  0  0
    0.0000    4.8506    0.0000 C   0  0  0  0  0  0  0  0  0  0  0  0
    0.0000    7.2760    0.0000 O   0  0  0  0  0  0  0  0  0  0  0  0
    0.0000    9.7013    0.0000 C   0  0  0  0  0  0  0  0  0  0  0  0
  1  2  1  0  0  0  0 
  2  3  1  0  0  0  0 
  3  4  1  0  0  0  0 
  4  5  1  0  0  0  0 
  5  6  1  0  0  0  0 
  6  7  1  0  0  0  0 
  7  8  1  0  0  0  0 
  8  9  1  0  0  0  0 
  9 10  1  0  0  0  0 
 10 11  1  0  0  0  0 
 11 12  1  0  0  0  0 
 12 13  1  0  0  0  0 
 13 14  1  0  0  0  0 
 14 15  1  0  0  0  0 
 14 16  1  0  0  0  0 
 15 17  1  0  0  0  0 
 18 16  1  0  0  0  0 
 17 19  1  0  0  0  0 
 17 20  1  0  0  0  0 
 20 18  1  0  0  0  0 
 18 21  1  0  0  0  0 
M  END
> <Name>
Tridemorph

> <Source>
IndexNet2DMolFile

> <Tox>
2.661

> <CAS>
81412-43-3

$$$$

  CDK

 23 24  0  0  0  0  0  0  0  0999 V2000
    8.4544    3.4984    0.0000 C   0  0  0  0  0  0  0  0  0  0  0  0
    7.2467    4.2064    0.0000 C   0  0  0  0  0  0  0  0  0  0  0  0
    7.2467    5.5808    0.0000 C   0  0  0  0  0  0  0  0  0  0  0  0
    6.0389    3.4984    0.0000 N   0  0  0  0  0  0  0  0  0  0  0  0
    6.0389    2.0824    0.0000 C   0  0  0  0  0  0  0  0  0  0  0  0
    4.8311    1.4160    0.0000 C   0  0  0  0  0  0  0  0  0  0  0  0
    4.8311    0.0000    0.0000 O   0  0  0  0  0  0  0  0  0  0  0  0
    3.6233    2.0824    0.0000 C   0  0  0  0  0  0  0  0  0  0  0  0
    3.6233    3.4984    0.0000 O   0  0  0  0  0  0  0  0  0  0  0  0
    2.4156    4.2064    0.0000 C   0  0  0  0  0  0  0  0  0  0  0  0
    1.2078    3.4984    0.0000 C   0  0  0  0  0  0  0  0  0  0  0  0
    2.4156    5.5808    0.0000 C   0  0  0  0  0  0  0  0  0  0  0  0
    0.0000    4.2064    0.0000 C   0  0  0  0  0  0  0  0  0  0  0  0
    3.6233    6.2888    0.0000 O   0  0  0  0  0  0  0  0  0  0  0  0
    1.2078    6.2888    0.0000 C   0  0  0  0  0  0  0  0  0  0  0  0
    0.0000    5.5808    0.0000 C   0  0  0  0  0  0  0  0  0  0  0  0
    3.6233    7.7048    0.0000 C   0  0  0  0  0  0  0  0  0  0  0  0
    1.2078    7.7048    0.0000 C   0  0  0  0  0  0  0  0  0  0  0  0
    2.4156    8.4128    0.0000 C   0  0  0  0  0  0  0  0  0  0  0  0
    2.4156    9.7872    0.0000 O   0  0  0  0  0  0  0  0  0  0  0  0
    1.2078   10.4952    0.0000 N   0  0  0  0  0  0  0  0  0  0  0  0
    0.0000    9.7872    0.0000 O   0  0  0  0  0  0  0  0  0  0  0  0
    1.2078   11.8695    0.0000 O   0  0  0  0  0  0  0  0  0  0  0  0
  1  2  1  0  0  0  0 
  2  3  1  0  0  0  0 
  2  4  1  0  0  0  0 
  4  5  1  0  0  0  0 
  5  6  1  0  0  0  0 
  6  7  1  0  0  0  0 
  6  8  1  0  0  0  0 
  8  9  1  0  0  0  0 
  9 10  1  0  0  0  0 
 10 11  2  0  0  0  0 
 10 12  1  0  0  0  0 
 11 13  1  0  0  0  0 
 14 12  1  0  0  0  0 
 15 12  2  0  0  0  0 
 13 16  2  0  0  0  0 
 17 14  1  0  0  0  0 
 16 15  1  0  0  0  0 
 15 18  1  0  0  0  0 
 19 17  1  0  0  0  0 
 18 19  1  0  0  0  0 
 19 20  1  0  0  0  0 
 20 21  1  0  0  0  0 
 21 22  1  0  0  0  0 
 21 23  2  0  0  0  0 
M  CHG  1  21   1
M  CHG  1  22  -1
M  END
> <Name>
2H-1-Benzopyran-3-ol, 3,4-dihydro-8-(2-hydroxy-3-((1-methylethyl)amino)propoxy)-, 3-nitrate

> <Source>
IndexNet2DMolFile

> <Tox>
2.497

> <CAS>
81486-22-8

$$$$

  CDK

 17 18  0  0  0  0  0  0  0  0999 V2000
   -2.1660   -3.3624    2.0271 O   0  0  0  0  0  0  0  0  0  0  0  0
   -1.4176   -4.3390    2.0239 C   0  0  0  0  0  0  0  0  0  0  0  0
   -0.0825   -4.3732    1.5884 N   0  0  0  0  0  0  0  0  0  0  0  0
   -1.9743   -5.6114    2.5393 C   0  0  0  0  0  0  0  0  0  0  0  0
    0.7091   -5.6187    1.6385 C   0  0  0  0  0  0  0  0  0  0  0  0
    0.5951   -3.1978    1.0766 C   0  0  0  0  0  0  0  0  0  0  0  0
   -2.6271   -6.4752    1.5110 C   0  0  0  0  0  0  0  0  0  0  0  0
   -1.8875   -5.9396    3.8324 C   0  0  0  0  0  0  0  0  0  0  0  0
    2.1420   -5.3782    2.0801 C   0  0  0  0  0  0  0  0  0  0  0  0
    1.9900   -3.2213    0.8440 C   0  0  0  0  0  0  0  0  0  0  0  0
   -0.0983   -2.0176    0.7526 C   0  0  0  0  0  0  0  0  0  0  0  0
   -2.3781   -7.1596    4.5440 C   0  0  0  0  0  0  0  0  0  0  0  0
    2.8250   -4.4487    1.0979 C   0  0  0  0  0  0  0  0  0  0  0  0
    2.6426   -2.0904    0.3191 C   0  0  0  0  0  0  0  0  0  0  0  0
    0.5644   -0.8962    0.2423 C   0  0  0  0  0  0  0  0  0  0  0  0
    1.9346   -0.9303    0.0284 C   0  0  0  0  0  0  0  0  0  0  0  0
    2.6394    0.2619   -0.5222 C   0  0  0  0  0  0  0  0  0  0  0  0
  1  2  2  0  0  0  0 
  3  2  1  0  0  0  0 
  2  4  1  0  0  0  0 
  3  5  1  0  0  0  0 
  3  6  1  0  0  0  0 
  4  7  1  0  0  0  0 
  4  8  2  0  0  0  0 
  9  5  1  0  0  0  0 
 10  6  2  0  0  0  0 
  6 11  1  0  0  0  0 
  8 12  1  0  0  0  0 
  9 13  1  0  0  0  0 
 13 10  1  0  0  0  0 
 10 14  1  0  0  0  0 
 11 15  2  0  0  0  0 
 14 16  2  0  0  0  0 
 16 15  1  0  0  0  0 
 16 17  1  0  0  0  0 
M  END
> <Name>
Quinoline, 1,2,3,4-tetrahydro-6-methyl-1-(2-methyl-1-oxo-2-butenyl)-, (E)-

> <Source>
Chemidplus3DMolFile

> <Tox>
2.018

> <CAS>
81719-55-3

$$$$

  CDK

 16 17  0  0  0  0  0  0  0  0999 V2000
    4.6212   -1.9866    0.0000 N   0  0  0  0  0  0  0  0  0  0  0  0
    4.6212   -3.3182    0.0000 C   0  0  0  0  0  0  0  0  0  0  0  0
    5.8887   -1.5879    0.0000 O   0  0  0  0  0  0  0  0  0  0  0  0
    3.4606   -1.3315    0.0000 C   0  0  0  0  0  0  0  0  0  0  0  0
    5.8887   -3.7169    0.0000 C   0  0  0  0  0  0  0  0  0  0  0  0
    3.5247   -4.1014    0.0000 O   0  0  0  0  0  0  0  0  0  0  0  0
    6.6577   -2.6773    0.0000 C   0  0  0  0  0  0  0  0  0  0  0  0
    2.2928   -1.9866    0.0000 C   0  0  0  0  0  0  0  0  0  0  0  0
    5.3902   -4.9701    0.0000 C   0  0  0  0  0  0  0  0  0  0  0  0
    7.1205   -4.2154    0.0000 C   0  0  0  0  0  0  0  0  0  0  0  0
    1.1535   -1.3315    0.0000 C   0  0  0  0  0  0  0  0  0  0  0  0
    2.2928   -3.3182    0.0000 C   0  0  0  0  0  0  0  0  0  0  0  0
    1.1535   -0.0000    0.0000 Cl  0  0  0  0  0  0  0  0  0  0  0  0
    0.0000   -1.9866    0.0000 C   0  0  0  0  0  0  0  0  0  0  0  0
    1.1535   -3.9946    0.0000 C   0  0  0  0  0  0  0  0  0  0  0  0
    0.0000   -3.3182    0.0000 C   0  0  0  0  0  0  0  0  0  0  0  0
  1  2  1  0  0  0  0 
  1  3  1  0  0  0  0 
  1  4  1  0  0  0  0 
  2  5  1  0  0  0  0 
  2  6  2  0  0  0  0 
  3  7  1  0  0  0  0 
  4  8  1  0  0  0  0 
  5  9  1  0  0  0  0 
  5 10  1  0  0  0  0 
  5  7  1  0  0  0  0 
  8 11  2  0  0  0  0 
  8 12  1  0  0  0  0 
 11 13  1  0  0  0  0 
 11 14  1  0  0  0  0 
 12 15  2  0  0  0  0 
 14 16  2  0  0  0  0 
 15 16  1  0  0  0  0 
M  END
> <Name>
3-Isoxazolidinone, 2-((2-chlorophenyl)methyl)-4,4-dimethyl-

> <Source>
DSSTox2DMolFile

> <Tox>
2.243

> <CAS>
81777-89-1

$$$$

  CDK

 30 33  0  0  0  0  0  0  0  0999 V2000
   -2.9139    0.2713    3.2973 Cl  0  0  0  0  0  0  0  0  0  0  0  0
   -1.8327   -0.9716    2.7730 C   0  0  0  0  0  0  0  0  0  0  0  0
   -1.0981   -0.7470    1.6085 C   0  0  0  0  0  0  0  0  0  0  0  0
   -1.6815   -2.1689    3.4727 C   0  0  0  0  0  0  0  0  0  0  0  0
   -0.1976   -1.7149    1.1206 C   0  0  0  0  0  0  0  0  0  0  0  0
   -2.5637   -2.5063    4.9205 Cl  0  0  0  0  0  0  0  0  0  0  0  0
   -0.7958   -3.1412    3.0083 C   0  0  0  0  0  0  0  0  0  0  0  0
    0.5393   -1.4900   -0.0476 N   0  0  0  0  0  0  0  0  0  0  0  0
   -0.0613   -2.9165    1.8441 C   0  0  0  0  0  0  0  0  0  0  0  0
    1.4438   -0.3338   -0.0810 C   0  0  0  0  0  0  0  0  0  0  0  0
    0.9279   -2.6239   -0.8918 C   0  0  0  0  0  0  0  0  0  0  0  0
    1.7512    0.0657   -1.5260 C   0  0  0  0  0  0  0  0  0  0  0  0
    1.2532   -2.1507   -2.3108 C   0  0  0  0  0  0  0  0  0  0  0  0
    2.2568   -1.0796   -2.2928 N   0  0  0  0  0  0  0  0  0  0  0  0
    2.5985   -0.6737   -3.6556 C   0  0  0  0  0  0  0  0  0  0  0  0
    3.1878   -1.8312   -4.4668 C   0  0  0  0  0  0  0  0  0  0  0  0
    4.4616   -2.4319   -3.8754 C   0  0  0  0  0  0  0  0  0  0  0  0
    4.9694   -3.5515   -4.6613 N   0  0  0  0  0  0  0  0  0  0  0  0
    4.4913   -4.8427   -4.3127 C   0  0  0  0  0  0  0  0  0  0  0  0
    5.9045   -3.2325   -5.7113 C   0  0  0  0  0  0  0  0  0  0  0  0
    3.6930   -5.0763   -3.4094 O   0  0  0  0  0  0  0  0  0  0  0  0
    5.0563   -5.8522   -5.1482 C   0  0  0  0  0  0  0  0  0  0  0  0
    6.2599   -2.0701   -5.9371 O   0  0  0  0  0  0  0  0  0  0  0  0
    6.3854   -4.3329   -6.4642 N   0  0  0  0  0  0  0  0  0  0  0  0
    4.8675   -7.2044   -5.1527 N   0  0  0  0  0  0  0  0  0  0  0  0
    5.9463   -5.6141   -6.1596 C   0  0  0  0  0  0  0  0  0  0  0  0
    7.3349   -4.1295   -7.5514 C   0  0  0  0  0  0  0  0  0  0  0  0
    5.6471   -7.7135   -6.1591 C   0  0  0  0  0  0  0  0  0  0  0  0
    4.0167   -7.9760   -4.2786 C   0  0  0  0  0  0  0  0  0  0  0  0
    6.3163   -6.7712   -6.7909 N   0  0  0  0  0  0  0  0  0  0  0  0
  1  2  1  0  0  0  0 
  3  2  1  0  0  0  0 
  2  4  2  0  0  0  0 
  5  3  2  0  0  0  0 
  6  4  1  0  0  0  0 
  7  4  1  0  0  0  0 
  8  5  1  0  0  0  0 
  5  9  1  0  0  0  0 
  9  7  2  0  0  0  0 
  8 10  1  0  0  0  0 
  8 11  1  0  0  0  0 
 12 10  1  0  0  0  0 
 13 11  1  0  0  0  0 
 14 12  1  0  0  0  0 
 14 13  1  0  0  0  0 
 14 15  1  0  0  0  0 
 15 16  1  0  0  0  0 
 16 17  1  0  0  0  0 
 18 17  1  0  0  0  0 
 18 19  1  0  0  0  0 
 18 20  1  0  0  0  0 
 21 19  2  0  0  0  0 
 19 22  1  0  0  0  0 
 23 20  2  0  0  0  0 
 24 20  1  0  0  0  0 
 25 22  1  0  0  0  0 
 22 26  2  0  0  0  0 
 24 26  1  0  0  0  0 
 24 27  1  0  0  0  0 
 25 28  1  0  0  0  0 
 25 29  1  0  0  0  0 
 30 26  1  0  0  0  0 
 30 28  2  0  0  0  0 
M  END
> <Name>
Theobromine, 1-(3-(4-(3,4-dichlorophenyl)-1-piperazinyl)propyl)-

> <Source>
Chemidplus3DMolFile

> <Tox>
2.353

> <CAS>
81995-79-1

$$$$

  CDK

 21 22  0  0  0  0  0  0  0  0999 V2000
    2.4156    6.2888    0.0000 C   0  0  0  0  0  0  0  0  0  0  0  0
    2.4156    4.9144    0.0000 C   0  0  0  0  0  0  0  0  0  0  0  0
    3.6233    4.2064    0.0000 C   0  0  0  0  0  0  0  0  0  0  0  0
    1.2078    4.2064    0.0000 C   0  0  0  0  0  0  0  0  0  0  0  0
    4.8311    4.9144    0.0000 C   0  0  0  0  0  0  0  0  0  0  0  0
    1.2078    2.7904    0.0000 C   0  0  0  0  0  0  0  0  0  0  0  0
    4.9977    6.2888    0.0000 S   0  0  0  0  0  0  0  0  0  0  0  0
    6.1222    4.3313    0.0000 C   0  0  0  0  0  0  0  0  0  0  0  0
    2.4156    2.0824    0.0000 C   0  0  0  0  0  0  0  0  0  0  0  0
    0.0000    2.0824    0.0000 C   0  0  0  0  0  0  0  0  0  0  0  0
    6.3304    6.5803    0.0000 C   0  0  0  0  0  0  0  0  0  0  0  0
    7.0384    5.3725    0.0000 N   0  0  0  0  0  0  0  0  0  0  0  0
    6.3721    2.9570    0.0000 O   0  0  0  0  0  0  0  0  0  0  0  0
    2.4156    0.7080    0.0000 C   0  0  0  0  0  0  0  0  0  0  0  0
    0.0000    0.7080    0.0000 C   0  0  0  0  0  0  0  0  0  0  0  0
    6.9135    7.8297    0.0000 S   0  0  0  0  0  0  0  0  0  0  0  0
    8.4544    5.2476    0.0000 C   0  0  0  0  0  0  0  0  0  0  0  0
    1.2078    0.0000    0.0000 C   0  0  0  0  0  0  0  0  0  0  0  0
    9.2874    6.3721    0.0000 C   0  0  0  0  0  0  0  0  0  0  0  0
   10.6201    6.2055    0.0000 O   0  0  0  0  0  0  0  0  0  0  0  0
    8.6627    7.6215    0.0000 O   0  0  0  0  0  0  0  0  0  0  0  0
  1  2  1  0  0  0  0 
  2  3  1  0  0  0  0 
  2  4  2  0  0  0  0 
  3  5  2  0  0  0  0 
  4  6  1  0  0  0  0 
  5  7  1  0  0  0  0 
  5  8  1  0  0  0  0 
  6  9  2  0  0  0  0 
  6 10  1  0  0  0  0 
  7 11  1  0  0  0  0 
 12  8  1  0  0  0  0 
  8 13  2  0  0  0  0 
  9 14  1  0  0  0  0 
 15 10  2  0  0  0  0 
 11 16  2  0  0  0  0 
 11 12  1  0  0  0  0 
 12 17  1  0  0  0  0 
 14 18  2  0  0  0  0 
 18 15  1  0  0  0  0 
 17 19  1  0  0  0  0 
 19 20  1  0  0  0  0 
 19 21  2  0  0  0  0 
M  END
> <Name>
3-Thiazolidineacetic acid, 5-(2-methyl-3-phenyl-2-propenylidene)-4-oxo-2-thioxo-, (E,E)-

> <Source>
IndexNet2DMolFile

> <Tox>
4.780

> <CAS>
82159-09-9

$$$$

  CDK

 28 29  0  0  0  0  0  0  0  0999 V2000
    6.1264    5.9757    0.0000 C   0  0  0  0  0  0  0  0  0  0  0  0
    5.6242    5.1221    0.0000 C   0  0  0  0  0  0  0  0  0  0  0  0
    7.1307    5.9757    0.0000 C   0  0  0  0  0  0  0  0  0  0  0  0
    6.1264    4.3186    0.0000 C   0  0  0  0  0  0  0  0  0  0  0  0
    4.6199    5.1221    0.0000 O   0  0  0  0  0  0  0  0  0  0  0  0
    7.6329    5.1221    0.0000 C   0  0  0  0  0  0  0  0  0  0  0  0
    7.1307    4.3186    0.0000 C   0  0  0  0  0  0  0  0  0  0  0  0
    5.8251    3.3645    0.0000 O   0  0  0  0  0  0  0  0  0  0  0  0
    4.1177    6.0260    0.0000 C   0  0  0  0  0  0  0  0  0  0  0  0
    7.4320    3.3645    0.0000 C   0  0  0  0  0  0  0  0  0  0  0  0
    6.6286    2.7619    0.0000 C   0  0  0  0  0  0  0  0  0  0  0  0
    3.1134    6.0260    0.0000 N   0  0  0  0  0  0  0  0  0  0  0  0
    4.6199    6.8796    0.0000 O   0  0  0  0  0  0  0  0  0  0  0  0
    6.4277    1.7074    0.0000 C   0  0  0  0  0  0  0  0  0  0  0  0
    7.4320    2.1091    0.0000 C   0  0  0  0  0  0  0  0  0  0  0  0
    2.6112    6.8796    0.0000 C   0  0  0  0  0  0  0  0  0  0  0  0
    2.6112    5.1723    0.0000 S   0  0  0  0  0  0  0  0  0  0  0  0
    1.6069    5.1723    0.0000 N   0  0  0  0  0  0  0  0  0  0  0  0
    0.9039    5.8753    0.0000 C   0  0  0  0  0  0  0  0  0  0  0  0
    1.1048    4.3688    0.0000 C   0  0  0  0  0  0  0  0  0  0  0  0
    0.9039    6.8796    0.0000 C   0  0  0  0  0  0  0  0  0  0  0  0
    0.0000    5.4736    0.0000 C   0  0  0  0  0  0  0  0  0  0  0  0
    1.6069    3.4649    0.0000 C   0  0  0  0  0  0  0  0  0  0  0  0
    1.1048    2.6112    0.0000 C   0  0  0  0  0  0  0  0  0  0  0  0
    1.6069    1.7576    0.0000 O   0  0  0  0  0  0  0  0  0  0  0  0
    0.1004    2.6112    0.0000 O   0  0  0  0  0  0  0  0  0  0  0  0
    1.1048    0.9039    0.0000 C   0  0  0  0  0  0  0  0  0  0  0  0
    1.6069    0.0000    0.0000 C   0  0  0  0  0  0  0  0  0  0  0  0
  1  2  2  0  0  0  0 
  3  1  1  0  0  0  0 
  2  4  1  0  0  0  0 
  2  5  1  0  0  0  0 
  6  3  2  0  0  0  0 
  7  4  2  0  0  0  0 
  4  8  1  0  0  0  0 
  5  9  1  0  0  0  0 
  7  6  1  0  0  0  0 
 10  7  1  0  0  0  0 
  8 11  1  0  0  0  0 
  9 12  1  0  0  0  0 
  9 13  2  0  0  0  0 
 11 10  1  0  0  0  0 
 11 14  1  0  0  0  0 
 11 15  1  0  0  0  0 
 12 16  1  0  0  0  0 
 12 17  1  0  0  0  0 
 17 18  1  0  0  0  0 
 18 19  1  0  0  0  0 
 18 20  1  0  0  0  0 
 19 21  1  0  0  0  0 
 19 22  1  0  0  0  0 
 20 23  1  0  0  0  0 
 23 24  1  0  0  0  0 
 24 25  1  0  0  0  0 
 24 26  2  0  0  0  0 
 25 27  1  0  0  0  0 
 27 28  1  0  0  0  0 
M  END
> <Name>
beta-Alanine, N-(((((2,3-dihydro-2,2-dimethyl-7-benzofuranyl)oxy)carbonyl)methylamino)thio)-N-(1-methylethyl)-, ethyl ester

> <Source>
NIST2DMolFile

> <Tox>
3.592

> <CAS>
82560-54-1

$$$$

  CDK

 19 20  0  0  0  0  0  0  0  0999 V2000
   -2.5502   -1.3902    2.5767 S   0  0  0  0  0  0  0  0  0  0  0  0
   -1.8560    0.0692    3.4342 C   0  0  0  0  0  0  0  0  0  0  0  0
   -1.4514   -1.4608    1.1239 C   0  0  0  0  0  0  0  0  0  0  0  0
   -0.4099    0.1611    3.2740 N   0  0  0  0  0  0  0  0  0  0  0  0
   -2.2701    0.0848    4.8903 C   0  0  0  0  0  0  0  0  0  0  0  0
   -0.6840   -0.1708    0.8796 C   0  0  0  0  0  0  0  0  0  0  0  0
    0.2223    0.1517    2.0465 C   0  0  0  0  0  0  0  0  0  0  0  0
   -3.4779    0.6734    5.2660 C   0  0  0  0  0  0  0  0  0  0  0  0
   -1.4444   -0.4893    5.8576 C   0  0  0  0  0  0  0  0  0  0  0  0
    1.4190    0.3902    1.8966 O   0  0  0  0  0  0  0  0  0  0  0  0
   -3.8597    0.6882    6.6075 C   0  0  0  0  0  0  0  0  0  0  0  0
   -1.8262   -0.4747    7.1991 C   0  0  0  0  0  0  0  0  0  0  0  0
   -5.0420    1.2653    6.9607 O   0  0  0  0  0  0  0  0  0  0  0  0
   -3.0339    0.1140    7.5742 C   0  0  0  0  0  0  0  0  0  0  0  0
   -1.0100   -1.0382    8.1332 O   0  0  0  0  0  0  0  0  0  0  0  0
   -5.8268    1.8294    5.9118 C   0  0  0  0  0  0  0  0  0  0  0  0
   -3.4082    0.1272    8.8852 O   0  0  0  0  0  0  0  0  0  0  0  0
    0.2061   -1.6184    7.6658 C   0  0  0  0  0  0  0  0  0  0  0  0
   -3.5623   -1.1367    9.5267 C   0  0  0  0  0  0  0  0  0  0  0  0
  1  2  1  0  0  0  0 
  1  3  1  0  0  0  0 
  4  2  1  0  0  0  0 
  2  5  1  0  0  0  0 
  3  6  1  0  0  0  0 
  4  7  1  0  0  0  0 
  5  8  2  0  0  0  0 
  5  9  1  0  0  0  0 
  6  7  1  0  0  0  0 
 10  7  2  0  0  0  0 
  8 11  1  0  0  0  0 
  9 12  2  0  0  0  0 
 13 11  1  0  0  0  0 
 11 14  2  0  0  0  0 
 15 12  1  0  0  0  0 
 12 14  1  0  0  0  0 
 13 16  1  0  0  0  0 
 17 14  1  0  0  0  0 
 15 18  1  0  0  0  0 
 17 19  1  0  0  0  0 
M  END
> <Name>
4H-1,3-Thiazin-4-one, tetrahydro-2-(3,4,5-trimethoxyphenyl)-

> <Source>
Chemidplus3DMolFile

> <Tox>
1.720

> <CAS>
82697-76-5

$$$$

  CDK

 21 20  0  0  0  0  0  0  0  0999 V2000
    8.0702   -3.0401    0.0000 C   0  0  0  0  0  0  0  0  0  0  0  0
    9.2171   -2.3768    0.0000 C   0  0  0  0  0  0  0  0  0  0  0  0
    6.9094   -2.3630    0.0000 N   0  0  0  0  0  0  0  0  0  0  0  0
   10.3503   -3.0678    0.0000 C   0  0  0  0  0  0  0  0  0  0  0  0
    5.7486   -3.0125    0.0000 C   0  0  0  0  0  0  0  0  0  0  0  0
   11.5249   -2.4045    0.0000 Si  0  0  0  0  0  0  0  0  0  0  0  0
    4.6017   -2.3492    0.0000 C   0  0  0  0  0  0  0  0  0  0  0  0
   10.8754   -1.2575    0.0000 O   0  0  0  0  0  0  0  0  0  0  0  0
   12.6857   -1.7550    0.0000 O   0  0  0  0  0  0  0  0  0  0  0  0
   12.1744   -3.5653    0.0000 O   0  0  0  0  0  0  0  0  0  0  0  0
    3.4409   -2.9849    0.0000 C   0  0  0  0  0  0  0  0  0  0  0  0
   11.5387   -0.0967    0.0000 C   0  0  0  0  0  0  0  0  0  0  0  0
   13.8188   -2.4183    0.0000 C   0  0  0  0  0  0  0  0  0  0  0  0
   13.5010   -3.5791    0.0000 C   0  0  0  0  0  0  0  0  0  0  0  0
    2.3077   -2.3077    0.0000 Si  0  0  0  0  0  0  0  0  0  0  0  0
    2.9849   -1.1746    0.0000 O   0  0  0  0  0  0  0  0  0  0  0  0
    1.1608   -1.6444    0.0000 O   0  0  0  0  0  0  0  0  0  0  0  0
    1.6168   -3.4685    0.0000 O   0  0  0  0  0  0  0  0  0  0  0  0
    2.3216   -0.0000    0.0000 C   0  0  0  0  0  0  0  0  0  0  0  0
    0.0000   -2.2939    0.0000 C   0  0  0  0  0  0  0  0  0  0  0  0
    0.2902   -3.4547    0.0000 C   0  0  0  0  0  0  0  0  0  0  0  0
  1  2  1  0  0  0  0 
  1  3  1  0  0  0  0 
  2  4  1  0  0  0  0 
  3  5  1  0  0  0  0 
  4  6  1  0  0  0  0 
  5  7  1  0  0  0  0 
  6  8  1  0  0  0  0 
  6  9  1  0  0  0  0 
  6 10  1  0  0  0  0 
  7 11  1  0  0  0  0 
  8 12  1  0  0  0  0 
  9 13  1  0  0  0  0 
 10 14  1  0  0  0  0 
 11 15  1  0  0  0  0 
 15 16  1  0  0  0  0 
 15 17  1  0  0  0  0 
 15 18  1  0  0  0  0 
 16 19  1  0  0  0  0 
 17 20  1  0  0  0  0 
 18 21  1  0  0  0  0 
M  END
> <Name>
1-Propanamine, 3-(trimethoxysilyl)-N-(3-(trimethoxysilyl)propyl)-

> <Source>
DSSTox2DMolFile

> <Tox>
1.960

> <CAS>
82985-35-1

$$$$

  CDK

 17 18  0  0  0  0  0  0  0  0999 V2000
    1.8344   -0.9463    4.0404 O   0  0  0  0  0  0  0  0  0  0  0  0
    1.8509   -0.9767    2.6799 C   0  0  0  0  0  0  0  0  0  0  0  0
    1.8528   -2.2016    4.7184 C   0  0  0  0  0  0  0  0  0  0  0  0
    2.9180   -1.5734    2.0082 C   0  0  0  0  0  0  0  0  0  0  0  0
    0.8008   -0.4105    1.9570 C   0  0  0  0  0  0  0  0  0  0  0  0
    0.5899   -2.3283    5.5585 C   0  0  0  0  0  0  0  0  0  0  0  0
    3.0934   -2.2897    5.5925 C   0  0  0  0  0  0  0  0  0  0  0  0
    2.9348   -1.6038    0.6137 C   0  0  0  0  0  0  0  0  0  0  0  0
    0.8176   -0.4410    0.5626 C   0  0  0  0  0  0  0  0  0  0  0  0
    4.0758   -2.2409   -0.1044 C   0  0  0  0  0  0  0  0  0  0  0  0
    1.8846   -1.0376   -0.1090 C   0  0  0  0  0  0  0  0  0  0  0  0
    4.2721   -3.7048    0.3132 C   0  0  0  0  0  0  0  0  0  0  0  0
    5.3819   -1.5667    0.2467 C   0  0  0  0  0  0  0  0  0  0  0  0
    5.6439   -3.7537    0.9251 C   0  0  0  0  0  0  0  0  0  0  0  0
    5.6396   -0.3862    0.0594 O   0  0  0  0  0  0  0  0  0  0  0  0
    6.1995   -2.5045    0.8257 N   0  0  0  0  0  0  0  0  0  0  0  0
    6.1567   -4.7526    1.4081 O   0  0  0  0  0  0  0  0  0  0  0  0
  1  2  1  0  0  0  0 
  1  3  1  0  0  0  0 
  4  2  1  0  0  0  0 
  2  5  2  0  0  0  0 
  3  6  1  0  0  0  0 
  3  7  1  0  0  0  0 
  8  4  2  0  0  0  0 
  9  5  1  0  0  0  0 
 10  8  1  0  0  0  0 
  8 11  1  0  0  0  0 
 11  9  2  0  0  0  0 
 10 12  1  0  0  0  0 
 10 13  1  0  0  0  0 
 12 14  1  0  0  0  0 
 15 13  2  0  0  0  0 
 16 13  1  0  0  0  0 
 17 14  2  0  0  0  0 
 16 14  1  0  0  0  0 
M  END
> <Name>
Succinimide, 3-(m-isopropoxyphenyl)-

> <Source>
Chemidplus3DMolFile

> <Tox>
1.988

> <CAS>
83656-29-5

$$$$

  CDK

  8  7  0  0  0  0  0  0  0  0999 V2000
    1.7214   -0.9653   -0.5785 S   0  0  0  0  0  0  0  0  0  0  0  0
    2.6821    0.8379   -0.1024 P   0  0  0  0  0  0  0  0  0  0  0  0
    2.2248   -2.1248    0.7082 C   0  0  0  0  0  0  0  0  0  0  0  0
    2.1055    1.4526    1.2839 O   0  0  0  0  0  0  0  0  0  0  0  0
    4.1750    0.6462   -0.0546 O   0  0  0  0  0  0  0  0  0  0  0  0
    2.2372    2.0600   -1.3368 C   0  0  0  0  0  0  0  0  0  0  0  0
    0.7237    1.7178    1.4453 C   0  0  0  0  0  0  0  0  0  0  0  0
    2.8556    3.4137   -1.0583 C   0  0  0  0  0  0  0  0  0  0  0  0
  1  2  1  0  0  0  0 
  1  3  1  0  0  0  0 
  2  4  1  0  0  0  0 
  2  5  2  0  0  0  0 
  2  6  1  0  0  0  0 
  4  7  1  0  0  0  0 
  6  8  1  0  0  0  0 
M  END
> <Name>
Phosphonothioic acid, ethyl-, O,S-dimethyl ester

> <Source>
Chemidplus3DMolFile

> <Tox>
4.269

> <CAS>
84044-17-7

$$$$

  CDK

 19 19  0  0  0  0  0  0  0  0999 V2000
   -5.1531   -0.4898   -7.5825 Cl  0  0  0  0  0  0  0  0  0  0  0  0
   -3.9105   -0.3104   -6.3943 C   0  0  0  0  0  0  0  0  0  0  0  0
   -3.7796    0.8549   -5.6392 C   0  0  0  0  0  0  0  0  0  0  0  0
   -3.0246   -1.3702   -6.2006 C   0  0  0  0  0  0  0  0  0  0  0  0
   -4.6653    1.9566   -5.8069 N   0  0  0  0  0  0  0  0  0  0  0  0
   -2.7626    0.9606   -4.6903 C   0  0  0  0  0  0  0  0  0  0  0  0
   -2.0076   -1.2647   -5.2517 C   0  0  0  0  0  0  0  0  0  0  0  0
   -4.4965    2.9739   -5.0977 O   0  0  0  0  0  0  0  0  0  0  0  0
   -5.5792    1.8659   -6.6571 O   0  0  0  0  0  0  0  0  0  0  0  0
   -1.8823   -0.0999   -4.5018 C   0  0  0  0  0  0  0  0  0  0  0  0
   -0.8843    0.0037   -3.5707 O   0  0  0  0  0  0  0  0  0  0  0  0
   -0.2256   -1.2121   -2.7243 P   0  0  0  0  0  0  0  0  0  0  0  0
   -1.4493   -2.3693   -1.7408 S   0  0  0  0  0  0  0  0  0  0  0  0
    0.8703   -0.4092   -1.8262 O   0  0  0  0  0  0  0  0  0  0  0  0
    0.7376   -1.9141   -3.8319 O   0  0  0  0  0  0  0  0  0  0  0  0
    0.4434    0.6057   -0.9331 C   0  0  0  0  0  0  0  0  0  0  0  0
    1.5102   -3.0479   -3.4760 C   0  0  0  0  0  0  0  0  0  0  0  0
    1.6528    1.1843   -0.2299 C   0  0  0  0  0  0  0  0  0  0  0  0
    2.3086   -3.4984   -4.6806 C   0  0  0  0  0  0  0  0  0  0  0  0
  1  2  1  0  0  0  0 
  3  2  2  0  0  0  0 
  4  2  1  0  0  0  0 
  5  3  1  0  0  0  0 
  6  3  1  0  0  0  0 
  7  4  2  0  0  0  0 
  8  5  1  0  0  0  0 
  9  5  2  0  0  0  0 
 10  6  2  0  0  0  0 
 10  7  1  0  0  0  0 
 11 10  1  0  0  0  0 
 12 11  1  0  0  0  0 
 13 12  2  0  0  0  0 
 12 14  1  0  0  0  0 
 12 15  1  0  0  0  0 
 14 16  1  0  0  0  0 
 15 17  1  0  0  0  0 
 16 18  1  0  0  0  0 
 17 19  1  0  0  0  0 
M  CHG  1   5   1
M  CHG  1   8  -1
M  END
> <Name>
Phosphorothioic acid, O-(4-chloro-3-nitrophenyl) O,O-diethyl ester

> <Source>
Chemidplus3DMolFile

> <Tox>
3.513

> <CAS>
84197-35-3

$$$$

  CDK

 56 59  0  0  0  0  0  0  0  0999 V2000
   22.8840  -15.0734    0.3630 C   0  0  0  0  0  0  0  0  0  0  0  0
   22.1536  -15.0462   -0.8682 C   0  0  0  0  0  0  0  0  0  0  0  0
   22.3251  -14.7935    1.5112 N   0  0  0  0  0  0  0  0  0  0  0  0
   21.3032  -16.1675   -1.0504 C   0  0  0  0  0  0  0  0  0  0  0  0
   21.4581  -13.9243    1.4987 C   0  0  0  0  0  0  0  0  0  0  0  0
   22.8345  -15.1401    2.6849 C   0  0  0  0  0  0  0  0  0  0  0  0
   20.5228  -16.1528   -2.2459 C   0  0  0  0  0  0  0  0  0  0  0  0
   20.2385  -14.1928    1.5484 N   0  0  0  0  0  0  0  0  0  0  0  0
   21.8188  -12.7292    1.5248 N   0  0  0  0  0  0  0  0  0  0  0  0
   21.9666  -15.0918    3.8404 C   0  0  0  0  0  0  0  0  0  0  0  0
   23.5397  -16.3922    2.7736 C   0  0  0  0  0  0  0  0  0  0  0  0
   19.8316  -17.3830   -2.4567 C   0  0  0  0  0  0  0  0  0  0  0  0
   19.3927  -13.2826    1.6677 C   0  0  0  0  0  0  0  0  0  0  0  0
   20.9855  -11.8136    1.6420 C   0  0  0  0  0  0  0  0  0  0  0  0
   22.5922  -15.3011    5.1194 C   0  0  0  0  0  0  0  0  0  0  0  0
   24.2209  -16.6561    4.0124 C   0  0  0  0  0  0  0  0  0  0  0  0
   18.6196  -17.3545   -3.1994 C   0  0  0  0  0  0  0  0  0  0  0  0
   19.7772  -12.0995    1.7191 N   0  0  0  0  0  0  0  0  0  0  0  0
   18.2152  -13.5341    1.7992 N   0  0  0  0  0  0  0  0  0  0  0  0
   21.3608  -10.6699    1.7562 N   0  0  0  0  0  0  0  0  0  0  0  0
   23.3871  -16.4108    5.0662 N   0  0  0  0  0  0  0  0  0  0  0  0
   21.6134  -15.6075    6.1215 C   0  0  0  0  0  0  0  0  0  0  0  0
   23.3164  -14.1518    5.5765 C   0  0  0  0  0  0  0  0  0  0  0  0
   24.5426  -18.0491    4.1168 C   0  0  0  0  0  0  0  0  0  0  0  0
   25.4499  -15.9264    4.1269 C   0  0  0  0  0  0  0  0  0  0  0  0
   17.5828  -16.6039   -2.9083 N   0  0  0  0  0  0  0  0  0  0  0  0
   17.5669  -13.2906    2.8789 C   0  0  0  0  0  0  0  0  0  0  0  0
   21.2144  -10.0157    2.8480 C   0  0  0  0  0  0  0  0  0  0  0  0
   16.9203  -16.2342   -3.8949 C   0  0  0  0  0  0  0  0  0  0  0  0
   17.0255  -16.3527   -1.7297 C   0  0  0  0  0  0  0  0  0  0  0  0
   16.2472  -13.4379    2.7695 C   0  0  0  0  0  0  0  0  0  0  0  0
   21.5041   -8.7204    2.7636 C   0  0  0  0  0  0  0  0  0  0  0  0
   16.6602  -15.0400   -4.1835 N   0  0  0  0  0  0  0  0  0  0  0  0
   16.3776  -17.1302   -4.5675 N   0  0  0  0  0  0  0  0  0  0  0  0
   15.7446  -16.9773   -1.5085 C   0  0  0  0  0  0  0  0  0  0  0  0
   17.7262  -16.2842   -0.4672 C   0  0  0  0  0  0  0  0  0  0  0  0
   15.4076  -12.6654    3.2221 C   0  0  0  0  0  0  0  0  0  0  0  0
   21.1862   -7.9092    3.6294 C   0  0  0  0  0  0  0  0  0  0  0  0
   15.8721  -14.7458   -5.1079 C   0  0  0  0  0  0  0  0  0  0  0  0
   15.5613  -16.8729   -5.4621 C   0  0  0  0  0  0  0  0  0  0  0  0
   15.7069  -18.1486   -0.6843 C   0  0  0  0  0  0  0  0  0  0  0  0
   17.5602  -17.2811    0.5706 C   0  0  0  0  0  0  0  0  0  0  0  0
   15.3205  -15.6793   -5.7253 N   0  0  0  0  0  0  0  0  0  0  0  0
   15.6377  -13.5779   -5.3749 N   0  0  0  0  0  0  0  0  0  0  0  0
   15.0076  -17.8211   -5.9635 N   0  0  0  0  0  0  0  0  0  0  0  0
   16.3301  -17.8642    0.4946 N   0  0  0  0  0  0  0  0  0  0  0  0
   14.3523  -18.4462   -0.3244 C   0  0  0  0  0  0  0  0  0  0  0  0
   16.2524  -19.3018   -1.3279 C   0  0  0  0  0  0  0  0  0  0  0  0
   17.5726  -16.6454    1.8573 C   0  0  0  0  0  0  0  0  0  0  0  0
   18.5780  -18.2872    0.6578 C   0  0  0  0  0  0  0  0  0  0  0  0
   14.9649  -13.1530   -6.3831 C   0  0  0  0  0  0  0  0  0  0  0  0
   13.8055  -17.8230   -6.3976 C   0  0  0  0  0  0  0  0  0  0  0  0
   14.8182  -11.8293   -6.3860 C   0  0  0  0  0  0  0  0  0  0  0  0
   13.4491  -18.9778   -6.9518 C   0  0  0  0  0  0  0  0  0  0  0  0
   13.7424  -11.2353   -6.3887 C   0  0  0  0  0  0  0  0  0  0  0  0
   13.5650  -20.0788   -6.4174 C   0  0  0  0  0  0  0  0  0  0  0  0
  1  2  1  0  0  0  0 
  1  3  1  0  0  0  0 
  2  4  1  0  0  0  0 
  5  3  1  0  0  0  0 
  3  6  1  0  0  0  0 
  4  7  1  0  0  0  0 
  8  5  1  0  0  0  0 
  5  9  2  0  0  0  0 
 10  6  1  0  0  0  0 
  6 11  1  0  0  0  0 
  7 12  1  0  0  0  0 
  8 13  2  0  0  0  0 
  9 14  1  0  0  0  0 
 15 10  1  0  0  0  0 
 11 16  1  0  0  0  0 
 12 17  1  0  0  0  0 
 18 13  1  0  0  0  0 
 13 19  1  0  0  0  0 
 14 18  2  0  0  0  0 
 14 20  1  0  0  0  0 
 21 15  1  0  0  0  0 
 15 22  1  0  0  0  0 
 15 23  1  0  0  0  0 
 21 16  1  0  0  0  0 
 16 24  1  0  0  0  0 
 16 25  1  0  0  0  0 
 17 26  1  0  0  0  0 
 19 27  1  0  0  0  0 
 20 28  1  0  0  0  0 
 29 26  1  0  0  0  0 
 26 30  1  0  0  0  0 
 27 31  1  0  0  0  0 
 28 32  1  0  0  0  0 
 33 29  1  0  0  0  0 
 29 34  2  0  0  0  0 
 35 30  1  0  0  0  0 
 30 36  1  0  0  0  0 
 31 37  2  0  0  0  0 
 32 38  2  0  0  0  0 
 33 39  2  0  0  0  0 
 34 40  1  0  0  0  0 
 41 35  1  0  0  0  0 
 36 42  1  0  0  0  0 
 43 39  1  0  0  0  0 
 39 44  1  0  0  0  0 
 40 43  2  0  0  0  0 
 40 45  1  0  0  0  0 
 46 41  1  0  0  0  0 
 41 47  1  0  0  0  0 
 41 48  1  0  0  0  0 
 46 42  1  0  0  0  0 
 42 49  1  0  0  0  0 
 42 50  1  0  0  0  0 
 44 51  1  0  0  0  0 
 45 52  1  0  0  0  0 
 51 53  1  0  0  0  0 
 52 54  1  0  0  0  0 
 53 55  2  0  0  0  0 
 54 56  2  0  0  0  0 
M  END
> <Name>
1,3,5-Triazine-2,4,6-triamine, N,N'''-1,6-hexanediylbis(N,N''-di-2-propenyl-N-(2,2,6,6-tetramethyl-4-piperidinyl)-

> <Source>
Chemidplus3DMolFile

> <Tox>
2.285

> <CAS>
85438-51-3

$$$$

  CDK

 22 24  0  0  0  0  0  0  0  0999 V2000
    7.3097   -2.1448    0.0000 N   0  0  0  0  0  0  0  0  0  0  0  0
    6.6444   -1.0067    0.0000 N   0  0  0  0  0  0  0  0  0  0  0  0
    6.6444   -3.2916    0.0000 C   0  0  0  0  0  0  0  0  0  0  0  0
    8.6141   -1.8646    0.0000 C   0  0  0  0  0  0  0  0  0  0  0  0
    7.5373   -0.0000    0.0000 C   0  0  0  0  0  0  0  0  0  0  0  0
    5.3138   -3.2916    0.0000 Si  0  0  0  0  0  0  0  0  0  0  0  0
    8.7542   -0.5428    0.0000 N   0  0  0  0  0  0  0  0  0  0  0  0
    5.3138   -4.6222    0.0000 C   0  0  0  0  0  0  0  0  0  0  0  0
    3.9831   -3.2916    0.0000 C   0  0  0  0  0  0  0  0  0  0  0  0
    5.3138   -1.9609    0.0000 C   0  0  0  0  0  0  0  0  0  0  0  0
    6.4606   -5.2788    0.0000 C   0  0  0  0  0  0  0  0  0  0  0  0
    4.1582   -5.2788    0.0000 C   0  0  0  0  0  0  0  0  0  0  0  0
    3.3266   -2.1448    0.0000 C   0  0  0  0  0  0  0  0  0  0  0  0
    3.3266   -4.4471    0.0000 C   0  0  0  0  0  0  0  0  0  0  0  0
    6.4606   -6.6181    0.0000 C   0  0  0  0  0  0  0  0  0  0  0  0
    4.1582   -6.6181    0.0000 C   0  0  0  0  0  0  0  0  0  0  0  0
    1.9959   -2.1448    0.0000 C   0  0  0  0  0  0  0  0  0  0  0  0
    1.9959   -4.4471    0.0000 C   0  0  0  0  0  0  0  0  0  0  0  0
    5.3138   -7.2747    0.0000 C   0  0  0  0  0  0  0  0  0  0  0  0
    1.3306   -3.2916    0.0000 C   0  0  0  0  0  0  0  0  0  0  0  0
    5.3138   -8.6053    0.0000 F   0  0  0  0  0  0  0  0  0  0  0  0
    0.0000   -3.2916    0.0000 F   0  0  0  0  0  0  0  0  0  0  0  0
  1  2  1  0  0  0  0 
  1  3  1  0  0  0  0 
  1  4  1  0  0  0  0 
  2  5  2  0  0  0  0 
  6  3  1  0  0  0  0 
  7  4  2  0  0  0  0 
  7  5  1  0  0  0  0 
  6  8  1  0  0  0  0 
  6  9  1  0  0  0  0 
  6 10  1  0  0  0  0 
  8 11  2  0  0  0  0 
  8 12  1  0  0  0  0 
  9 13  2  0  0  0  0 
  9 14  1  0  0  0  0 
 11 15  1  0  0  0  0 
 12 16  2  0  0  0  0 
 13 17  1  0  0  0  0 
 14 18  2  0  0  0  0 
 19 15  2  0  0  0  0 
 19 16  1  0  0  0  0 
 20 17  2  0  0  0  0 
 20 18  1  0  0  0  0 
 19 21  1  0  0  0  0 
 20 22  1  0  0  0  0 
M  END
> <Name>
1H-1,2,4-Triazole, 1-((bis(4-fluorophenyl)methylsilyl)methyl)-

> <Source>
DSSTox2DMolFile

> <Tox>
2.670

> <CAS>
85509-19-9

$$$$

  CDK

 40 42  0  0  0  0  0  0  0  0999 V2000
   -0.5825   -3.7372   -6.8134 Cl  0  0  0  0  0  0  0  0  0  0  0  0
   -0.9652   -3.8219   -5.1378 C   0  0  0  0  0  0  0  0  0  0  0  0
   -1.2824   -2.6594   -4.4352 C   0  0  0  0  0  0  0  0  0  0  0  0
   -0.9586   -5.0533   -4.4824 C   0  0  0  0  0  0  0  0  0  0  0  0
   -1.5929   -2.7282   -3.0771 C   0  0  0  0  0  0  0  0  0  0  0  0
   -1.2690   -5.1219   -3.1243 C   0  0  0  0  0  0  0  0  0  0  0  0
   -1.5861   -3.9594   -2.4216 C   0  0  0  0  0  0  0  0  0  0  0  0
   -1.9150   -4.0324   -0.9849 C   0  0  0  0  0  0  0  0  0  0  0  0
   -3.0202   -3.6278   -0.6393 O   0  0  0  0  0  0  0  0  0  0  0  0
   -1.0459   -4.5206    0.0151 N   0  0  0  0  0  0  0  0  0  0  0  0
   -1.4499   -5.1742    1.1640 C   0  0  0  0  0  0  0  0  0  0  0  0
    0.3525   -4.4726    0.0167 C   0  0  0  0  0  0  0  0  0  0  0  0
   -0.3473   -5.5280    1.9002 C   0  0  0  0  0  0  0  0  0  0  0  0
   -2.8684   -5.4285    1.5115 C   0  0  0  0  0  0  0  0  0  0  0  0
    0.7975   -5.0952    1.1912 C   0  0  0  0  0  0  0  0  0  0  0  0
    1.2723   -3.9264   -0.8991 C   0  0  0  0  0  0  0  0  0  0  0  0
   -0.3551   -6.2468    3.2136 C   0  0  0  0  0  0  0  0  0  0  0  0
    2.1814   -5.1830    1.4502 C   0  0  0  0  0  0  0  0  0  0  0  0
    2.6395   -4.0251   -0.6208 C   0  0  0  0  0  0  0  0  0  0  0  0
   -0.3098   -7.7484    3.0420 C   0  0  0  0  0  0  0  0  0  0  0  0
    3.0905   -4.6456    0.5370 C   0  0  0  0  0  0  0  0  0  0  0  0
    0.9977   -8.1607    3.0536 O   0  0  0  0  0  0  0  0  0  0  0  0
   -1.2822   -8.4796    2.9121 O   0  0  0  0  0  0  0  0  0  0  0  0
    4.4270   -4.7296    0.7859 O   0  0  0  0  0  0  0  0  0  0  0  0
    1.2084   -9.5589    2.8998 C   0  0  0  0  0  0  0  0  0  0  0  0
    4.8223   -5.3792    1.9926 C   0  0  0  0  0  0  0  0  0  0  0  0
    2.6787   -9.8262    2.9357 C   0  0  0  0  0  0  0  0  0  0  0  0
    3.3381  -10.8340    2.3327 C   0  0  0  0  0  0  0  0  0  0  0  0
    4.8369  -11.0334    2.3890 C   0  0  0  0  0  0  0  0  0  0  0  0
    2.5873  -11.8492    1.5111 C   0  0  0  0  0  0  0  0  0  0  0  0
    5.4837  -10.9238    1.0036 C   0  0  0  0  0  0  0  0  0  0  0  0
    5.1634   -9.6057    0.3548 C   0  0  0  0  0  0  0  0  0  0  0  0
    5.0511   -9.3166   -0.9567 C   0  0  0  0  0  0  0  0  0  0  0  0
    4.7758   -7.9412   -1.5278 C   0  0  0  0  0  0  0  0  0  0  0  0
    5.2597  -10.4057   -1.9797 C   0  0  0  0  0  0  0  0  0  0  0  0
    3.5509   -7.8773   -2.4509 C   0  0  0  0  0  0  0  0  0  0  0  0
    2.2599   -8.1370   -1.7256 C   0  0  0  0  0  0  0  0  0  0  0  0
    1.1238   -8.6726   -2.2112 C   0  0  0  0  0  0  0  0  0  0  0  0
   -0.1354   -8.9046   -1.4259 C   0  0  0  0  0  0  0  0  0  0  0  0
    1.0352   -9.0911   -3.6551 C   0  0  0  0  0  0  0  0  0  0  0  0
  1  2  1  0  0  0  0 
  3  2  2  0  0  0  0 
  4  2  1  0  0  0  0 
  5  3  1  0  0  0  0 
  6  4  2  0  0  0  0 
  7  5  2  0  0  0  0 
  7  6  1  0  0  0  0 
  8  7  1  0  0  0  0 
  9  8  2  0  0  0  0 
 10  8  1  0  0  0  0 
 10 11  1  0  0  0  0 
 10 12  1  0  0  0  0 
 13 11  2  0  0  0  0 
 11 14  1  0  0  0  0 
 15 12  2  0  0  0  0 
 12 16  1  0  0  0  0 
 13 15  1  0  0  0  0 
 13 17  1  0  0  0  0 
 15 18  1  0  0  0  0 
 16 19  2  0  0  0  0 
 17 20  1  0  0  0  0 
 18 21  2  0  0  0  0 
 21 19  1  0  0  0  0 
 22 20  1  0  0  0  0 
 23 20  2  0  0  0  0 
 24 21  1  0  0  0  0 
 22 25  1  0  0  0  0 
 24 26  1  0  0  0  0 
 25 27  1  0  0  0  0 
 28 27  2  0  0  0  0 
 29 28  1  0  0  0  0 
 28 30  1  0  0  0  0 
 29 31  1  0  0  0  0 
 31 32  1  0  0  0  0 
 33 32  2  0  0  0  0 
 34 33  1  0  0  0  0 
 33 35  1  0  0  0  0 
 34 36  1  0  0  0  0 
 36 37  1  0  0  0  0 
 37 38  2  0  0  0  0 
 38 39  1  0  0  0  0 
 38 40  1  0  0  0  0 
M  END
> <Name>
1H-Indole-3-acetic acid, 1-(4-chlorobenzoyl)-5-methoxy-2-methyl-, 3,7,11-trimethyl-2,6,10-dodecatrienyl ester

> <Source>
Chemidplus3DMolFile

> <Tox>
2.525

> <CAS>
85801-02-1

$$$$

  CDK

 20 20  0  0  0  0  0  0  0  0999 V2000
    0.3043   -3.4061    0.7547 S   0  0  0  0  0  0  0  0  0  0  0  0
   -0.5147   -2.4945    1.5305 O   0  0  0  0  0  0  0  0  0  0  0  0
   -0.0495   -4.8099    0.6665 O   0  0  0  0  0  0  0  0  0  0  0  0
    1.9229   -3.2772    1.2572 N   0  0  0  0  0  0  0  0  0  0  0  0
    0.3873   -2.7905   -0.9003 C   0  0  0  0  0  0  0  0  0  0  0  0
    2.5876   -1.9553    1.2742 C   0  0  0  0  0  0  0  0  0  0  0  0
    0.2028   -1.4376   -1.1274 C   0  0  0  0  0  0  0  0  0  0  0  0
    0.6337   -3.6724   -1.9384 C   0  0  0  0  0  0  0  0  0  0  0  0
    3.5866   -1.8722    2.4263 C   0  0  0  0  0  0  0  0  0  0  0  0
    0.2670   -0.9516   -2.4333 C   0  0  0  0  0  0  0  0  0  0  0  0
    0.6980   -3.1862   -3.2442 C   0  0  0  0  0  0  0  0  0  0  0  0
    2.9725   -2.1086    3.8086 C   0  0  0  0  0  0  0  0  0  0  0  0
    0.5146   -1.8259   -3.4916 C   0  0  0  0  0  0  0  0  0  0  0  0
    0.0692    0.5030   -2.6971 C   0  0  0  0  0  0  0  0  0  0  0  0
    1.9234   -1.0838    4.1800 C   0  0  0  0  0  0  0  0  0  0  0  0
    0.1573    0.8367   -4.0187 F   0  0  0  0  0  0  0  0  0  0  0  0
   -1.1482    0.9715   -2.2920 F   0  0  0  0  0  0  0  0  0  0  0  0
    0.9916    1.2822   -2.0606 F   0  0  0  0  0  0  0  0  0  0  0  0
    0.9268   -1.6387    4.9187 O   0  0  0  0  0  0  0  0  0  0  0  0
    1.9323    0.0945    3.8519 O   0  0  0  0  0  0  0  0  0  0  0  0
  1  2  2  0  0  0  0 
  1  3  2  0  0  0  0 
  1  4  1  0  0  0  0 
  1  5  1  0  0  0  0 
  4  6  1  0  0  0  0 
  5  7  1  0  0  0  0 
  5  8  2  0  0  0  0 
  6  9  1  0  0  0  0 
  7 10  2  0  0  0  0 
  8 11  1  0  0  0  0 
  9 12  1  0  0  0  0 
 10 13  1  0  0  0  0 
 10 14  1  0  0  0  0 
 13 11  2  0  0  0  0 
 12 15  1  0  0  0  0 
 16 14  1  0  0  0  0 
 17 14  1  0  0  0  0 
 18 14  1  0  0  0  0 
 19 15  1  0  0  0  0 
 20 15  2  0  0  0  0 
M  END
> <Name>
Butanoic acid, 4-(((3-(trifluoromethyl)phenyl)sulfonyl)amino)-

> <Source>
Chemidplus3DMolFile

> <Tox>
1.379

> <CAS>
85844-93-5

$$$$

  CDK

 21 23  0  0  0  0  0  0  0  0999 V2000
   -0.0729   -4.5342   -0.0659 O   0  0  0  0  0  0  0  0  0  0  0  0
   -0.4604   -5.7615    0.4520 C   0  0  0  0  0  0  0  0  0  0  0  0
   -0.4264   -3.3198    0.5505 C   0  0  0  0  0  0  0  0  0  0  0  0
   -0.1476   -6.8104   -0.1018 O   0  0  0  0  0  0  0  0  0  0  0  0
   -1.2577   -5.7379    1.7034 C   0  0  0  0  0  0  0  0  0  0  0  0
   -1.1715   -3.3030    1.7278 C   0  0  0  0  0  0  0  0  0  0  0  0
    0.0024   -2.1503   -0.0801 C   0  0  0  0  0  0  0  0  0  0  0  0
   -1.6985   -7.0793    2.2460 C   0  0  0  0  0  0  0  0  0  0  0  0
   -1.5769   -4.5851    2.3189 C   0  0  0  0  0  0  0  0  0  0  0  0
   -1.4967   -2.0523    2.2705 C   0  0  0  0  0  0  0  0  0  0  0  0
   -0.3249   -0.9193    0.4777 C   0  0  0  0  0  0  0  0  0  0  0  0
   -2.7773   -6.9911    3.2443 N   0  0  0  0  0  0  0  0  0  0  0  0
   -2.3480   -4.5993    3.6182 C   0  0  0  0  0  0  0  0  0  0  0  0
   -1.0751   -0.8702    1.6508 C   0  0  0  0  0  0  0  0  0  0  0  0
   -2.4468   -5.9902    4.2608 C   0  0  0  0  0  0  0  0  0  0  0  0
   -3.0239   -8.2965    3.8543 C   0  0  0  0  0  0  0  0  0  0  0  0
   -3.4638   -9.3455    2.8219 C   0  0  0  0  0  0  0  0  0  0  0  0
   -3.6719  -10.6234    3.5084 N   0  0  0  0  0  0  0  0  0  0  0  0
   -4.7546   -8.9660    2.0964 C   0  0  0  0  0  0  0  0  0  0  0  0
   -4.0236  -11.6645    2.5571 C   0  0  0  0  0  0  0  0  0  0  0  0
   -4.2407  -12.9961    3.2558 C   0  0  0  0  0  0  0  0  0  0  0  0
  1  2  1  0  0  0  0 
  1  3  1  0  0  0  0 
  4  2  2  0  0  0  0 
  5  2  1  0  0  0  0 
  6  3  1  0  0  0  0 
  3  7  2  0  0  0  0 
  8  5  1  0  0  0  0 
  9  5  2  0  0  0  0 
  9  6  1  0  0  0  0 
  6 10  2  0  0  0  0 
  7 11  1  0  0  0  0 
 12  8  1  0  0  0  0 
 13  9  1  0  0  0  0 
 10 14  1  0  0  0  0 
 14 11  2  0  0  0  0 
 12 15  1  0  0  0  0 
 12 16  1  0  0  0  0 
 15 13  1  0  0  0  0 
 16 17  1  0  0  0  0 
 18 17  1  0  0  0  0 
 17 19  1  0  0  0  0 
 18 20  1  0  0  0  0 
 20 21  1  0  0  0  0 
M  END
> <Name>
5H-(1)Benzopyrano(3,4-c)pyridin-5-one, 1,2,3,4-tetrahydro-3-(2-(ethylamino)propyl)-

> <Source>
Chemidplus3DMolFile

> <Tox>
2.980

> <CAS>
86371-40-6

$$$$

  CDK

 22 24  0  0  0  0  0  0  0  0999 V2000
    4.0564   -0.0000    0.0000 N   0  0  0  0  0  0  0  0  0  0  0  0
    2.9389   -0.6511    0.0000 C   0  0  0  0  0  0  0  0  0  0  0  0
    5.0244   -0.8711    0.0000 C   0  0  0  0  0  0  0  0  0  0  0  0
    3.2029   -1.9182    0.0000 N   0  0  0  0  0  0  0  0  0  0  0  0
    4.4964   -2.0502    0.0000 N   0  0  0  0  0  0  0  0  0  0  0  0
    5.3411   -3.5109    0.0000 C   0  0  0  0  0  0  0  0  0  0  0  0
    4.4964   -4.9716    0.0000 C   0  0  0  0  0  0  0  0  0  0  0  0
    5.6227   -5.6227    0.0000 C   0  0  0  0  0  0  0  0  0  0  0  0
    3.3701   -4.3292    0.0000 C   0  0  0  0  0  0  0  0  0  0  0  0
    3.8453   -6.0979    0.0000 O   0  0  0  0  0  0  0  0  0  0  0  0
    6.7490   -4.9716    0.0000 N   0  0  0  0  0  0  0  0  0  0  0  0
    2.2526   -4.9716    0.0000 C   0  0  0  0  0  0  0  0  0  0  0  0
    3.3701   -3.0269    0.0000 C   0  0  0  0  0  0  0  0  0  0  0  0
    6.8810   -3.6869    0.0000 N   0  0  0  0  0  0  0  0  0  0  0  0
    7.9281   -5.4995    0.0000 C   0  0  0  0  0  0  0  0  0  0  0  0
    1.1263   -4.3292    0.0000 C   0  0  0  0  0  0  0  0  0  0  0  0
    2.2526   -6.2738    0.0000 F   0  0  0  0  0  0  0  0  0  0  0  0
    2.2526   -2.3758    0.0000 C   0  0  0  0  0  0  0  0  0  0  0  0
    8.1481   -3.4141    0.0000 C   0  0  0  0  0  0  0  0  0  0  0  0
    8.7992   -4.5404    0.0000 N   0  0  0  0  0  0  0  0  0  0  0  0
    1.1263   -3.0269    0.0000 C   0  0  0  0  0  0  0  0  0  0  0  0
    0.0000   -2.3758    0.0000 F   0  0  0  0  0  0  0  0  0  0  0  0
  1  2  1  0  0  0  0 
  1  3  2  0  0  0  0 
  2  4  2  0  0  0  0 
  5  3  1  0  0  0  0 
  4  5  1  0  0  0  0 
  5  6  1  0  0  0  0 
  6  7  1  0  0  0  0 
  7  8  1  0  0  0  0 
  7  9  1  0  0  0  0 
  7 10  1  0  0  0  0 
  8 11  1  0  0  0  0 
  9 12  2  0  0  0  0 
  9 13  1  0  0  0  0 
 11 14  1  0  0  0  0 
 11 15  1  0  0  0  0 
 12 16  1  0  0  0  0 
 12 17  1  0  0  0  0 
 18 13  2  0  0  0  0 
 14 19  2  0  0  0  0 
 20 15  2  0  0  0  0 
 16 21  2  0  0  0  0 
 21 18  1  0  0  0  0 
 19 20  1  0  0  0  0 
 21 22  1  0  0  0  0 
M  END
> <Name>
1H-1,2,4-Triazole-1-ethanol, alpha-(2,4-difluorophenyl)-alpha-(1H-1,2,4-triazol-1-ylmethyl)-

> <Source>
DSSTox2DMolFile

> <Tox>
2.382

> <CAS>
86386-73-4

$$$$

  CDK

 43 47  0  0  0  0  0  0  0  0999 V2000
    4.2619    0.3168   -5.2382 Cl  0  0  0  0  0  0  0  0  0  0  0  0
    3.5692   -1.0271   -4.4164 C   0  0  0  0  0  0  0  0  0  0  0  0
    2.3865   -1.5979   -4.8865 C   0  0  0  0  0  0  0  0  0  0  0  0
    4.1907   -1.5457   -3.2804 C   0  0  0  0  0  0  0  0  0  0  0  0
    1.8252   -2.6874   -4.2205 C   0  0  0  0  0  0  0  0  0  0  0  0
    3.6293   -2.6352   -2.6144 C   0  0  0  0  0  0  0  0  0  0  0  0
    2.4465   -3.2060   -3.0844 C   0  0  0  0  0  0  0  0  0  0  0  0
    1.8530   -4.3589   -2.3800 C   0  0  0  0  0  0  0  0  0  0  0  0
    1.7082   -5.3955   -3.0196 O   0  0  0  0  0  0  0  0  0  0  0  0
    1.4309   -4.3475   -1.0326 N   0  0  0  0  0  0  0  0  0  0  0  0
    1.4700   -5.4364   -0.1822 C   0  0  0  0  0  0  0  0  0  0  0  0
    0.9424   -3.2540   -0.3091 C   0  0  0  0  0  0  0  0  0  0  0  0
    1.0059   -5.0667    1.0551 C   0  0  0  0  0  0  0  0  0  0  0  0
    1.9433   -6.7815   -0.5874 C   0  0  0  0  0  0  0  0  0  0  0  0
    0.6705   -3.6940    0.9938 C   0  0  0  0  0  0  0  0  0  0  0  0
    0.6991   -1.9177   -0.6810 C   0  0  0  0  0  0  0  0  0  0  0  0
    0.8838   -5.9437    2.2391 C   0  0  0  0  0  0  0  0  0  0  0  0
    0.1581   -2.7842    1.9423 C   0  0  0  0  0  0  0  0  0  0  0  0
    0.1904   -1.0339    0.2763 C   0  0  0  0  0  0  0  0  0  0  0  0
    2.1416   -5.9555    3.0929 C   0  0  0  0  0  0  0  0  0  0  0  0
   -0.0763   -1.4587    1.5715 C   0  0  0  0  0  0  0  0  0  0  0  0
    1.7804   -6.2397    4.4095 O   0  0  0  0  0  0  0  0  0  0  0  0
    3.2744   -5.7469    2.6796 O   0  0  0  0  0  0  0  0  0  0  0  0
   -0.5712   -0.5792    2.4862 O   0  0  0  0  0  0  0  0  0  0  0  0
    2.8739   -6.2732    5.2779 C   0  0  0  0  0  0  0  0  0  0  0  0
   -0.7909    0.7595    2.0456 C   0  0  0  0  0  0  0  0  0  0  0  0
    3.2990   -5.1210    5.9391 C   0  0  0  0  0  0  0  0  0  0  0  0
    3.5427   -7.4804    5.4805 C   0  0  0  0  0  0  0  0  0  0  0  0
    4.3929   -5.1759    6.8028 C   0  0  0  0  0  0  0  0  0  0  0  0
    2.6150   -3.8505    5.7421 C   0  0  0  0  0  0  0  0  0  0  0  0
    4.6366   -7.5354    6.3443 C   0  0  0  0  0  0  0  0  0  0  0  0
    5.0616   -6.3832    7.0054 C   0  0  0  0  0  0  0  0  0  0  0  0
    3.4934   -2.7832    5.9084 O   0  0  0  0  0  0  0  0  0  0  0  0
    1.4113   -3.7403    5.4765 O   0  0  0  0  0  0  0  0  0  0  0  0
    2.9040   -1.5282    5.7335 C   0  0  0  0  0  0  0  0  0  0  0  0
    2.8676   -0.9228    4.4774 C   0  0  0  0  0  0  0  0  0  0  0  0
    2.3467   -0.8807    6.8361 C   0  0  0  0  0  0  0  0  0  0  0  0
    2.2741    0.3301    4.3240 C   0  0  0  0  0  0  0  0  0  0  0  0
    3.4434   -1.5813    3.3130 C   0  0  0  0  0  0  0  0  0  0  0  0
    1.7530    0.3722    6.6828 C   0  0  0  0  0  0  0  0  0  0  0  0
    1.7167    0.9776    5.4267 C   0  0  0  0  0  0  0  0  0  0  0  0
    3.3114   -0.8398    2.1800 O   0  0  0  0  0  0  0  0  0  0  0  0
    3.9944   -2.6857    3.3170 O   0  0  0  0  0  0  0  0  0  0  0  0
  1  2  1  0  0  0  0 
  3  2  2  0  0  0  0 
  4  2  1  0  0  0  0 
  5  3  1  0  0  0  0 
  6  4  2  0  0  0  0 
  7  5  2  0  0  0  0 
  7  6  1  0  0  0  0 
  8  7  1  0  0  0  0 
  9  8  2  0  0  0  0 
 10  8  1  0  0  0  0 
 10 11  1  0  0  0  0 
 10 12  1  0  0  0  0 
 13 11  2  0  0  0  0 
 11 14  1  0  0  0  0 
 15 12  2  0  0  0  0 
 12 16  1  0  0  0  0 
 13 15  1  0  0  0  0 
 13 17  1  0  0  0  0 
 15 18  1  0  0  0  0 
 16 19  2  0  0  0  0 
 17 20  1  0  0  0  0 
 18 21  2  0  0  0  0 
 21 19  1  0  0  0  0 
 22 20  1  0  0  0  0 
 23 20  2  0  0  0  0 
 24 21  1  0  0  0  0 
 22 25  1  0  0  0  0 
 24 26  1  0  0  0  0 
 25 27  1  0  0  0  0 
 25 28  2  0  0  0  0 
 27 29  2  0  0  0  0 
 27 30  1  0  0  0  0 
 28 31  1  0  0  0  0 
 29 32  1  0  0  0  0 
 33 30  1  0  0  0  0 
 34 30  2  0  0  0  0 
 31 32  2  0  0  0  0 
 33 35  1  0  0  0  0 
 35 36  1  0  0  0  0 
 35 37  2  0  0  0  0 
 36 38  2  0  0  0  0 
 36 39  1  0  0  0  0 
 37 40  1  0  0  0  0 
 38 41  1  0  0  0  0 
 42 39  1  0  0  0  0 
 43 39  2  0  0  0  0 
 40 41  2  0  0  0  0 
M  END
> <Name>
1H-Indole-3-acetic acid, 1-(4-chlorobenzoyl)-5-methoxy-2-methyl-2-((2-carboxyphenoxy)carbonyl)phenyl ester

> <Source>
Chemidplus3DMolFile

> <Tox>
3.977

> <CAS>
86811-46-3

$$$$

  CDK

 31 33  0  0  0  0  0  0  0  0999 V2000
    5.2340    1.6647   -0.5405 O   0  0  0  0  0  0  0  0  0  0  0  0
    5.1116    0.4392   -0.3763 C   0  0  0  0  0  0  0  0  0  0  0  0
    5.0001   -0.4842   -1.5256 C   0  0  0  0  0  0  0  0  0  0  0  0
    5.0638   -0.0534    0.9912 C   0  0  0  0  0  0  0  0  0  0  0  0
    4.4636   -0.1525   -2.7424 N   0  0  0  0  0  0  0  0  0  0  0  0
    5.4002   -1.8008   -1.5857 C   0  0  0  0  0  0  0  0  0  0  0  0
    4.3277   -1.1989    1.2943 C   0  0  0  0  0  0  0  0  0  0  0  0
    5.7537    0.6193    1.9998 C   0  0  0  0  0  0  0  0  0  0  0  0
    4.5144   -1.2377   -3.5778 C   0  0  0  0  0  0  0  0  0  0  0  0
    3.9254    1.1457   -3.0906 C   0  0  0  0  0  0  0  0  0  0  0  0
    5.0927   -2.2776   -2.8840 C   0  0  0  0  0  0  0  0  0  0  0  0
    4.2814   -1.6716    2.6057 C   0  0  0  0  0  0  0  0  0  0  0  0
    5.7074    0.1467    3.3113 C   0  0  0  0  0  0  0  0  0  0  0  0
    4.0080   -1.1910   -4.9650 C   0  0  0  0  0  0  0  0  0  0  0  0
    4.9713   -0.9987    3.6142 C   0  0  0  0  0  0  0  0  0  0  0  0
    2.5361   -1.5877   -4.9970 C   0  0  0  0  0  0  0  0  0  0  0  0
    4.9224   -1.5051    5.0159 C   0  0  0  0  0  0  0  0  0  0  0  0
    1.6421   -0.7492   -4.8955 O   0  0  0  0  0  0  0  0  0  0  0  0
    2.3377   -2.9536   -5.1135 N   0  0  0  0  0  0  0  0  0  0  0  0
    1.0220   -3.5496   -5.1280 C   0  0  0  0  0  0  0  0  0  0  0  0
    0.5227   -3.9183   -3.7495 C   0  0  0  0  0  0  0  0  0  0  0  0
    1.4462   -3.5921   -2.7654 O   0  0  0  0  0  0  0  0  0  0  0  0
   -0.5721   -4.4417   -3.5677 O   0  0  0  0  0  0  0  0  0  0  0  0
    1.0159   -3.9200   -1.4770 C   0  0  0  0  0  0  0  0  0  0  0  0
    0.2963   -3.0003   -0.7142 C   0  0  0  0  0  0  0  0  0  0  0  0
    1.3107   -5.1797   -0.9555 C   0  0  0  0  0  0  0  0  0  0  0  0
    0.0019   -1.7671   -1.2123 O   0  0  0  0  0  0  0  0  0  0  0  0
   -0.1284   -3.3403    0.5702 C   0  0  0  0  0  0  0  0  0  0  0  0
    0.8860   -5.5196    0.3290 C   0  0  0  0  0  0  0  0  0  0  0  0
    0.9481   -0.7276   -0.9705 C   0  0  0  0  0  0  0  0  0  0  0  0
    0.1665   -4.5999    1.0919 C   0  0  0  0  0  0  0  0  0  0  0  0
  1  2  2  0  0  0  0 
  3  2  1  0  0  0  0 
  2  4  1  0  0  0  0 
  5  3  1  0  0  0  0 
  3  6  2  0  0  0  0 
  4  7  2  0  0  0  0 
  4  8  1  0  0  0  0 
  5  9  1  0  0  0  0 
  5 10  1  0  0  0  0 
 11  6  1  0  0  0  0 
  7 12  1  0  0  0  0 
  8 13  2  0  0  0  0 
  9 14  1  0  0  0  0 
  9 11  2  0  0  0  0 
 15 12  2  0  0  0  0 
 15 13  1  0  0  0  0 
 14 16  1  0  0  0  0 
 15 17  1  0  0  0  0 
 18 16  2  0  0  0  0 
 19 16  1  0  0  0  0 
 19 20  1  0  0  0  0 
 20 21  1  0  0  0  0 
 22 21  1  0  0  0  0 
 23 21  2  0  0  0  0 
 22 24  1  0  0  0  0 
 24 25  1  0  0  0  0 
 24 26  2  0  0  0  0 
 27 25  1  0  0  0  0 
 25 28  2  0  0  0  0 
 26 29  1  0  0  0  0 
 27 30  1  0  0  0  0 
 28 31  1  0  0  0  0 
 29 31  2  0  0  0  0 
M  END
> <Name>
Glycine, N-((1-methyl-5-(4-methylbenzoyl)-1H-pyrrol-2-yl)acetyl)-, 2-methoxyphenyl ester

> <Source>
Chemidplus3DMolFile

> <Tox>
2.462

> <CAS>
87344-06-7

$$$$

  CDK

 22 23  0  0  0  0  0  0  0  0999 V2000
   -1.4614   -0.7941   -2.9248 O   0  0  0  0  0  0  0  0  0  0  0  0
   -1.9932    0.4691   -3.1202 C   0  0  0  0  0  0  0  0  0  0  0  0
   -0.4151   -0.7855   -1.9456 C   0  0  0  0  0  0  0  0  0  0  0  0
   -2.7898    0.6137   -4.3748 C   0  0  0  0  0  0  0  0  0  0  0  0
   -1.7893    1.4784   -2.2599 C   0  0  0  0  0  0  0  0  0  0  0  0
   -0.8379    0.0165   -0.7255 C   0  0  0  0  0  0  0  0  0  0  0  0
   -4.0183   -0.2932   -4.3273 C   0  0  0  0  0  0  0  0  0  0  0  0
   -1.9102    0.3584   -5.5966 C   0  0  0  0  0  0  0  0  0  0  0  0
   -1.0983    1.3804   -1.0784 O   0  0  0  0  0  0  0  0  0  0  0  0
   -4.3414   -1.0952   -5.3671 C   0  0  0  0  0  0  0  0  0  0  0  0
   -4.7849   -0.3130   -3.0701 C   0  0  0  0  0  0  0  0  0  0  0  0
   -2.3095   -0.4672   -6.5906 C   0  0  0  0  0  0  0  0  0  0  0  0
   -0.6062    1.0422   -5.6275 C   0  0  0  0  0  0  0  0  0  0  0  0
   -3.5180   -1.1358   -6.4808 N   0  0  0  0  0  0  0  0  0  0  0  0
   -5.5496   -1.9898   -5.4353 C   0  0  0  0  0  0  0  0  0  0  0  0
   -5.7867    0.5939   -3.1664 O   0  0  0  0  0  0  0  0  0  0  0  0
   -4.5160   -1.0434   -2.1348 O   0  0  0  0  0  0  0  0  0  0  0  0
   -1.5223   -0.7923   -7.8323 C   0  0  0  0  0  0  0  0  0  0  0  0
   -0.7645    2.2358   -6.2484 O   0  0  0  0  0  0  0  0  0  0  0  0
    0.4099    0.5650   -5.1580 O   0  0  0  0  0  0  0  0  0  0  0  0
   -6.6273    0.6935   -2.0122 C   0  0  0  0  0  0  0  0  0  0  0  0
    0.4249    3.0245   -6.3580 C   0  0  0  0  0  0  0  0  0  0  0  0
  1  2  1  0  0  0  0 
  1  3  1  0  0  0  0 
  4  2  1  0  0  0  0 
  2  5  2  0  0  0  0 
  3  6  1  0  0  0  0 
  4  7  1  0  0  0  0 
  4  8  1  0  0  0  0 
  9  5  1  0  0  0  0 
  9  6  1  0  0  0  0 
  7 10  2  0  0  0  0 
  7 11  1  0  0  0  0 
  8 12  2  0  0  0  0 
  8 13  1  0  0  0  0 
 14 10  1  0  0  0  0 
 10 15  1  0  0  0  0 
 16 11  1  0  0  0  0 
 17 11  2  0  0  0  0 
 14 12  1  0  0  0  0 
 12 18  1  0  0  0  0 
 19 13  1  0  0  0  0 
 20 13  2  0  0  0  0 
 16 21  1  0  0  0  0 
 19 22  1  0  0  0  0 
M  END
> <Name>
3,5-Pyridinedicarboxylic acid, 1,4-dihydro-4-(5,6-dihydro-1,4-dioxin-2-yl)-2,6-dimethyl-, dimethyl ester

> <Source>
Chemidplus3DMolFile

> <Tox>
2.189

> <CAS>
88046-00-8

$$$$

  CDK

 15 16  0  0  0  0  0  0  0  0999 V2000
    1.2124    2.8000    0.0000 C   0  0  0  0  0  0  0  0  0  0  0  0
    2.4249    2.1000    0.0000 C   0  0  0  0  0  0  0  0  0  0  0  0
    0.0000    2.1000    0.0000 N   0  0  0  0  0  0  0  0  0  0  0  0
    1.2124    4.2000    0.0000 S   0  0  0  0  0  0  0  0  0  0  0  0
    3.6373    2.8000    0.0000 C   0  0  0  0  0  0  0  0  0  0  0  0
    0.0000    0.7000    0.0000 C   0  0  0  0  0  0  0  0  0  0  0  0
    4.8497    2.1000    0.0000 C   0  0  0  0  0  0  0  0  0  0  0  0
    6.0622    2.8000    0.0000 C   0  0  0  0  0  0  0  0  0  0  0  0
    4.8497    0.7000    0.0000 C   0  0  0  0  0  0  0  0  0  0  0  0
    7.2746    2.1000    0.0000 C   0  0  0  0  0  0  0  0  0  0  0  0
    6.0622    0.0000    0.0000 C   0  0  0  0  0  0  0  0  0  0  0  0
    7.2746    0.7000    0.0000 C   0  0  0  0  0  0  0  0  0  0  0  0
    8.6061    2.5326    0.0000 O   0  0  0  0  0  0  0  0  0  0  0  0
    8.6061    0.2674    0.0000 O   0  0  0  0  0  0  0  0  0  0  0  0
    9.4290    1.4000    0.0000 C   0  0  0  0  0  0  0  0  0  0  0  0
  1  2  1  0  0  0  0 
  1  3  1  0  0  0  0 
  1  4  2  0  0  0  0 
  2  5  2  0  0  0  0 
  3  6  1  0  0  0  0 
  5  7  1  0  0  0  0 
  7  8  1  0  0  0  0 
  7  9  2  0  0  0  0 
  8 10  2  0  0  0  0 
 11  9  1  0  0  0  0 
 10 12  1  0  0  0  0 
 10 13  1  0  0  0  0 
 12 11  2  0  0  0  0 
 12 14  1  0  0  0  0 
 15 13  1  0  0  0  0 
 15 14  1  0  0  0  0 
M  END
> <Name>
Cinnamamide, N-methyl-3,4-methylenedioxythio-

> <Source>
Name2DMolFile

> <Tox>
2.983

> <CAS>
88167-11-7

$$$$

  CDK

 19 20  0  0  0  0  0  0  0  0999 V2000
    2.4156    0.7080    0.0000 C   0  0  0  0  0  0  0  0  0  0  0  0
    3.6233    0.0000    0.0000 O   0  0  0  0  0  0  0  0  0  0  0  0
    4.8311    0.7080    0.0000 N   0  0  0  0  0  0  0  0  0  0  0  0
    4.8311    2.0824    0.0000 C   0  0  0  0  0  0  0  0  0  0  0  0
    6.0389    2.7904    0.0000 C   0  0  0  0  0  0  0  0  0  0  0  0
    3.6233    2.7904    0.0000 C   0  0  0  0  0  0  0  0  0  0  0  0
    7.2467    2.0824    0.0000 C   0  0  0  0  0  0  0  0  0  0  0  0
    2.4156    2.0824    0.0000 C   0  0  0  0  0  0  0  0  0  0  0  0
    3.6233    4.2064    0.0000 C   0  0  0  0  0  0  0  0  0  0  0  0
    7.2467    0.7080    0.0000 C   0  0  0  0  0  0  0  0  0  0  0  0
    8.4544    2.7904    0.0000 C   0  0  0  0  0  0  0  0  0  0  0  0
    1.2078    2.7904    0.0000 C   0  0  0  0  0  0  0  0  0  0  0  0
    2.4156    4.8728    0.0000 C   0  0  0  0  0  0  0  0  0  0  0  0
    4.8311    4.8728    0.0000 Cl  0  0  0  0  0  0  0  0  0  0  0  0
    8.4544    0.0000    0.0000 C   0  0  0  0  0  0  0  0  0  0  0  0
    9.6622    2.0824    0.0000 N   0  0  0  0  0  0  0  0  0  0  0  0
    1.2078    4.2064    0.0000 C   0  0  0  0  0  0  0  0  0  0  0  0
    9.6622    0.7080    0.0000 C   0  0  0  0  0  0  0  0  0  0  0  0
    0.0000    4.8728    0.0000 Cl  0  0  0  0  0  0  0  0  0  0  0  0
  1  2  1  0  0  0  0 
  2  3  1  0  0  0  0 
  3  4  2  0  0  0  0 
  4  5  1  0  0  0  0 
  4  6  1  0  0  0  0 
  5  7  1  0  0  0  0 
  6  8  2  0  0  0  0 
  6  9  1  0  0  0  0 
  7 10  2  0  0  0  0 
  7 11  1  0  0  0  0 
  8 12  1  0  0  0  0 
 13  9  2  0  0  0  0 
  9 14  1  0  0  0  0 
 10 15  1  0  0  0  0 
 16 11  2  0  0  0  0 
 12 17  2  0  0  0  0 
 17 13  1  0  0  0  0 
 15 18  2  0  0  0  0 
 18 16  1  0  0  0  0 
 17 19  1  0  0  0  0 
M  END
> <Name>
Ethanone, 1-(2,4-dichlorophenyl)-2-(3-pyridinyl)-, O-methyloxime

> <Source>
IndexNet2DMolFile

> <Tox>
2.238

> <CAS>
88283-41-4

$$$$

  CDK

 17 18  0  0  0  0  0  0  0  0999 V2000
    3.4790   -2.7023    6.5439 F   0  0  0  0  0  0  0  0  0  0  0  0
    2.1992   -2.3363    6.2089 C   0  0  0  0  0  0  0  0  0  0  0  0
    1.8559   -1.3975    7.1496 F   0  0  0  0  0  0  0  0  0  0  0  0
    1.4308   -3.4317    6.5093 F   0  0  0  0  0  0  0  0  0  0  0  0
    2.0444   -1.8808    4.8147 C   0  0  0  0  0  0  0  0  0  0  0  0
    0.8305   -1.4830    4.3276 N   0  0  0  0  0  0  0  0  0  0  0  0
    2.9895   -1.7996    3.9051 N   0  0  0  0  0  0  0  0  0  0  0  0
    1.0038   -1.1211    3.0163 C   0  0  0  0  0  0  0  0  0  0  0  0
    2.3594   -1.3276    2.7765 C   0  0  0  0  0  0  0  0  0  0  0  0
    0.1180   -0.6454    2.0488 C   0  0  0  0  0  0  0  0  0  0  0  0
    2.8798   -1.0483    1.5016 C   0  0  0  0  0  0  0  0  0  0  0  0
    0.6529   -0.3725    0.7855 C   0  0  0  0  0  0  0  0  0  0  0  0
    2.0090   -0.5697    0.5146 C   0  0  0  0  0  0  0  0  0  0  0  0
   -0.2223    0.1255   -0.2648 C   0  0  0  0  0  0  0  0  0  0  0  0
   -1.5013   -0.3355   -0.1136 O   0  0  0  0  0  0  0  0  0  0  0  0
    0.1411    0.8722   -1.1826 O   0  0  0  0  0  0  0  0  0  0  0  0
   -2.4599    0.0857   -1.0900 C   0  0  0  0  0  0  0  0  0  0  0  0
  1  2  1  0  0  0  0 
  3  2  1  0  0  0  0 
  4  2  1  0  0  0  0 
  5  2  1  0  0  0  0 
  6  5  1  0  0  0  0 
  7  5  2  0  0  0  0 
  6  8  1  0  0  0  0 
  7  9  1  0  0  0  0 
  8  9  2  0  0  0  0 
  8 10  1  0  0  0  0 
  9 11  1  0  0  0  0 
 10 12  2  0  0  0  0 
 11 13  2  0  0  0  0 
 12 13  1  0  0  0  0 
 12 14  1  0  0  0  0 
 15 14  1  0  0  0  0 
 16 14  2  0  0  0  0 
 15 17  1  0  0  0  0 
M  END
> <Name>
Benzimidazole-5-carboxylic acid, 2-(trifluoromethyl)-, methyl ester

> <Source>
Chemidplus3DMolFile

> <Tox>
4.039

> <CAS>
89426-88-0

$$$$

  CDK

 16 17  0  0  0  0  0  0  0  0999 V2000
    3.4797   -2.6952    6.5200 F   0  0  0  0  0  0  0  0  0  0  0  0
    2.1992   -2.3363    6.2089 C   0  0  0  0  0  0  0  0  0  0  0  0
    1.8524   -1.3885    7.1290 F   0  0  0  0  0  0  0  0  0  0  0  0
    1.4259   -3.4267    6.4829 F   0  0  0  0  0  0  0  0  0  0  0  0
    2.0444   -1.8808    4.8147 C   0  0  0  0  0  0  0  0  0  0  0  0
    0.8305   -1.4830    4.3276 N   0  0  0  0  0  0  0  0  0  0  0  0
    2.9895   -1.7996    3.9051 N   0  0  0  0  0  0  0  0  0  0  0  0
    1.0038   -1.1211    3.0163 C   0  0  0  0  0  0  0  0  0  0  0  0
    2.3594   -1.3276    2.7765 C   0  0  0  0  0  0  0  0  0  0  0  0
    0.1180   -0.6454    2.0488 C   0  0  0  0  0  0  0  0  0  0  0  0
    2.8798   -1.0483    1.5016 C   0  0  0  0  0  0  0  0  0  0  0  0
    0.6529   -0.3725    0.7855 C   0  0  0  0  0  0  0  0  0  0  0  0
    2.0090   -0.5697    0.5146 C   0  0  0  0  0  0  0  0  0  0  0  0
   -0.2223    0.1255   -0.2648 C   0  0  0  0  0  0  0  0  0  0  0  0
    0.2074    0.3649   -1.4065 O   0  0  0  0  0  0  0  0  0  0  0  0
   -1.5664    0.3082    0.0458 N   0  0  0  0  0  0  0  0  0  0  0  0
  1  2  1  0  0  0  0 
  3  2  1  0  0  0  0 
  4  2  1  0  0  0  0 
  5  2  1  0  0  0  0 
  6  5  1  0  0  0  0 
  7  5  2  0  0  0  0 
  6  8  1  0  0  0  0 
  7  9  1  0  0  0  0 
  8  9  2  0  0  0  0 
  8 10  1  0  0  0  0 
  9 11  1  0  0  0  0 
 10 12  2  0  0  0  0 
 11 13  2  0  0  0  0 
 12 13  1  0  0  0  0 
 12 14  1  0  0  0  0 
 15 14  2  0  0  0  0 
 16 14  1  0  0  0  0 
M  END
> <Name>
Benzimidazole-5-carboxamide, 2-(trifluoromethyl)-

> <Source>
Chemidplus3DMolFile

> <Tox>
3.860

> <CAS>
89426-89-1

$$$$

  CDK

 15 16  0  0  0  0  0  0  0  0999 V2000
   -0.3861    0.2258   -0.4536 Cl  0  0  0  0  0  0  0  0  0  0  0  0
    0.6569   -0.3853    0.7760 C   0  0  0  0  0  0  0  0  0  0  0  0
    0.1309   -0.6662    2.0413 C   0  0  0  0  0  0  0  0  0  0  0  0
    2.0090   -0.5905    0.4912 C   0  0  0  0  0  0  0  0  0  0  0  0
    1.0213   -1.1579    2.9964 C   0  0  0  0  0  0  0  0  0  0  0  0
    2.8846   -1.0851    1.4660 C   0  0  0  0  0  0  0  0  0  0  0  0
    0.8566   -1.5309    4.3056 N   0  0  0  0  0  0  0  0  0  0  0  0
    2.3732   -1.3725    2.7428 C   0  0  0  0  0  0  0  0  0  0  0  0
    4.1781   -1.2766    1.1791 F   0  0  0  0  0  0  0  0  0  0  0  0
    2.0716   -1.9423    4.7784 C   0  0  0  0  0  0  0  0  0  0  0  0
    3.0093   -1.8601    3.8613 N   0  0  0  0  0  0  0  0  0  0  0  0
    2.2338   -2.4121    6.1670 C   0  0  0  0  0  0  0  0  0  0  0  0
    3.5138   -2.7846    6.4642 F   0  0  0  0  0  0  0  0  0  0  0  0
    1.9025   -1.4702    7.0988 F   0  0  0  0  0  0  0  0  0  0  0  0
    1.4537   -3.4986    6.4372 F   0  0  0  0  0  0  0  0  0  0  0  0
  1  2  1  0  0  0  0 
  3  2  2  0  0  0  0 
  2  4  1  0  0  0  0 
  5  3  1  0  0  0  0 
  6  4  2  0  0  0  0 
  7  5  1  0  0  0  0 
  5  8  2  0  0  0  0 
  9  6  1  0  0  0  0 
  8  6  1  0  0  0  0 
  7 10  1  0  0  0  0 
 11  8  1  0  0  0  0 
 11 10  2  0  0  0  0 
 10 12  1  0  0  0  0 
 13 12  1  0  0  0  0 
 14 12  1  0  0  0  0 
 15 12  1  0  0  0  0 
M  END
> <Name>
Benzimidazole, 6-chloro-4-fluoro-2-(trifluoromethyl)-

> <Source>
Chemidplus3DMolFile

> <Tox>
4.510

> <CAS>
89426-95-9

$$$$

  CDK

 15 16  0  0  0  0  0  0  0  0999 V2000
    4.8964   -1.3483    1.0191 I   0  0  0  0  0  0  0  0  0  0  0  0
    2.8968   -1.0344    1.4786 C   0  0  0  0  0  0  0  0  0  0  0  0
    2.3966   -1.2756    2.7693 C   0  0  0  0  0  0  0  0  0  0  0  0
    2.0128   -0.5742    0.4946 C   0  0  0  0  0  0  0  0  0  0  0  0
    3.0425   -1.7232    3.8988 N   0  0  0  0  0  0  0  0  0  0  0  0
    1.0472   -1.0509    3.0269 C   0  0  0  0  0  0  0  0  0  0  0  0
    0.6634   -0.3580    0.7837 C   0  0  0  0  0  0  0  0  0  0  0  0
    2.1127   -1.7723    4.8265 C   0  0  0  0  0  0  0  0  0  0  0  0
    0.8939   -1.3767    4.3501 N   0  0  0  0  0  0  0  0  0  0  0  0
    0.1486   -0.5928    2.0629 C   0  0  0  0  0  0  0  0  0  0  0  0
   -0.3911    0.2089   -0.4572 Cl  0  0  0  0  0  0  0  0  0  0  0  0
    2.2876   -2.1910    6.2296 C   0  0  0  0  0  0  0  0  0  0  0  0
    3.5705   -2.5517    6.5291 F   0  0  0  0  0  0  0  0  0  0  0  0
    1.9636   -1.2160    7.1295 F   0  0  0  0  0  0  0  0  0  0  0  0
    1.5109   -3.2675    6.5463 F   0  0  0  0  0  0  0  0  0  0  0  0
  1  2  1  0  0  0  0 
  3  2  1  0  0  0  0 
  2  4  2  0  0  0  0 
  5  3  1  0  0  0  0 
  6  3  2  0  0  0  0 
  7  4  1  0  0  0  0 
  5  8  2  0  0  0  0 
  9  6  1  0  0  0  0 
  6 10  1  0  0  0  0 
 11  7  1  0  0  0  0 
 10  7  2  0  0  0  0 
  9  8  1  0  0  0  0 
  8 12  1  0  0  0  0 
 13 12  1  0  0  0  0 
 14 12  1  0  0  0  0 
 15 12  1  0  0  0  0 
M  END
> <Name>
Benzimidazole, 6-chloro-4-iodo-2-(trifluoromethyl)-

> <Source>
Chemidplus3DMolFile

> <Tox>
4.159

> <CAS>
89427-01-0

$$$$

  CDK

 17 18  0  0  0  0  0  0  0  0999 V2000
    3.5764   -2.5387    6.5308 F   0  0  0  0  0  0  0  0  0  0  0  0
    2.2932   -2.1787    6.2319 C   0  0  0  0  0  0  0  0  0  0  0  0
    1.9702   -1.2015    7.1300 F   0  0  0  0  0  0  0  0  0  0  0  0
    1.5168   -3.2543    6.5519 F   0  0  0  0  0  0  0  0  0  0  0  0
    2.1168   -1.7631    4.8281 C   0  0  0  0  0  0  0  0  0  0  0  0
    0.8977   -1.3680    4.3521 N   0  0  0  0  0  0  0  0  0  0  0  0
    3.0457   -1.7161    3.8994 N   0  0  0  0  0  0  0  0  0  0  0  0
    1.0497   -1.0451    3.0281 C   0  0  0  0  0  0  0  0  0  0  0  0
    2.3988   -1.2708    2.7695 C   0  0  0  0  0  0  0  0  0  0  0  0
    0.1503   -0.5888    2.0639 C   0  0  0  0  0  0  0  0  0  0  0  0
    2.8979   -1.0325    1.4779 C   0  0  0  0  0  0  0  0  0  0  0  0
    0.6641   -0.3567    0.7837 C   0  0  0  0  0  0  0  0  0  0  0  0
    4.2735   -1.2652    1.2231 N   0  0  0  0  0  0  0  0  0  0  0  0
    2.0131   -0.5740    0.4938 C   0  0  0  0  0  0  0  0  0  0  0  0
    4.7244   -1.0539    0.0704 O   0  0  0  0  0  0  0  0  0  0  0  0
    5.0056   -1.6762    2.1567 O   0  0  0  0  0  0  0  0  0  0  0  0
    2.4942   -0.3062   -0.8973 C   0  0  0  0  0  0  0  0  0  0  0  0
  1  2  1  0  0  0  0 
  3  2  1  0  0  0  0 
  4  2  1  0  0  0  0 
  5  2  1  0  0  0  0 
  6  5  1  0  0  0  0 
  7  5  2  0  0  0  0 
  6  8  1  0  0  0  0 
  7  9  1  0  0  0  0 
  8  9  2  0  0  0  0 
  8 10  1  0  0  0  0 
  9 11  1  0  0  0  0 
 10 12  2  0  0  0  0 
 13 11  1  0  0  0  0 
 11 14  2  0  0  0  0 
 14 12  1  0  0  0  0 
 15 13  1  0  0  0  0 
 16 13  2  0  0  0  0 
 14 17  1  0  0  0  0 
M  CHG  1  13   1
M  CHG  1  15  -1
M  END
> <Name>
Benzimidazole, 5-methyl-4-nitro-2-(trifluoromethyl)-

> <Source>
Chemidplus3DMolFile

> <Tox>
4.500

> <CAS>
89427-10-1

$$$$

  CDK

 17 18  0  0  0  0  0  0  0  0999 V2000
    4.5408   -1.3160    1.2553 Cl  0  0  0  0  0  0  0  0  0  0  0  0
    2.8798   -1.0483    1.5016 C   0  0  0  0  0  0  0  0  0  0  0  0
    2.3594   -1.3276    2.7765 C   0  0  0  0  0  0  0  0  0  0  0  0
    2.0090   -0.5697    0.5146 C   0  0  0  0  0  0  0  0  0  0  0  0
    2.9895   -1.7996    3.9051 N   0  0  0  0  0  0  0  0  0  0  0  0
    1.0038   -1.1211    3.0163 C   0  0  0  0  0  0  0  0  0  0  0  0
    0.6529   -0.3725    0.7855 C   0  0  0  0  0  0  0  0  0  0  0  0
    2.0444   -1.8808    4.8147 C   0  0  0  0  0  0  0  0  0  0  0  0
    0.8305   -1.4830    4.3276 N   0  0  0  0  0  0  0  0  0  0  0  0
    0.1180   -0.6454    2.0488 C   0  0  0  0  0  0  0  0  0  0  0  0
    2.1992   -2.3342    6.2092 C   0  0  0  0  0  0  0  0  0  0  0  0
   -1.2686   -0.4265    2.2733 N   0  0  0  0  0  0  0  0  0  0  0  0
    3.4801   -2.6914    6.5214 F   0  0  0  0  0  0  0  0  0  0  0  0
    1.8511   -1.3858    7.1284 F   0  0  0  0  0  0  0  0  0  0  0  0
    1.4271   -3.4253    6.4846 F   0  0  0  0  0  0  0  0  0  0  0  0
   -1.9699    0.0054    1.3286 O   0  0  0  0  0  0  0  0  0  0  0  0
   -1.7404   -0.6741    3.4079 O   0  0  0  0  0  0  0  0  0  0  0  0
  1  2  1  0  0  0  0 
  3  2  2  0  0  0  0 
  2  4  1  0  0  0  0 
  5  3  1  0  0  0  0 
  6  3  1  0  0  0  0 
  7  4  2  0  0  0  0 
  5  8  2  0  0  0  0 
  9  6  1  0  0  0  0 
  6 10  2  0  0  0  0 
 10  7  1  0  0  0  0 
  9  8  1  0  0  0  0 
  8 11  1  0  0  0  0 
 12 10  1  0  0  0  0 
 13 11  1  0  0  0  0 
 14 11  1  0  0  0  0 
 15 11  1  0  0  0  0 
 16 12  1  0  0  0  0 
 17 12  2  0  0  0  0 
M  CHG  1  12   1
M  CHG  1  16  -1
M  END
> <Name>
Benzimidazole, 4-chloro-7-nitro-2-(trifluoromethyl)-

> <Source>
Chemidplus3DMolFile

> <Tox>
4.380

> <CAS>
89427-11-2

$$$$

  CDK

 17 18  0  0  0  0  0  0  0  0999 V2000
    2.8000    2.8000    0.0000 C   0  0  0  0  0  0  0  0  0  0  0  0
    3.6229    1.6674    0.0000 N   0  0  0  0  0  0  0  0  0  0  0  0
    3.6229    3.9326    0.0000 N   0  0  0  0  0  0  0  0  0  0  0  0
    1.4000    2.8000    0.0000 C   0  0  0  0  0  0  0  0  0  0  0  0
    4.9544    2.1000    0.0000 C   0  0  0  0  0  0  0  0  0  0  0  0
    4.9544    3.5000    0.0000 C   0  0  0  0  0  0  0  0  0  0  0  0
    1.4000    4.2000    0.0000 F   0  0  0  0  0  0  0  0  0  0  0  0
    1.4000    1.4000    0.0000 F   0  0  0  0  0  0  0  0  0  0  0  0
    0.0000    2.8000    0.0000 F   0  0  0  0  0  0  0  0  0  0  0  0
    6.1668    1.4000    0.0000 C   0  0  0  0  0  0  0  0  0  0  0  0
    6.1668    4.2000    0.0000 C   0  0  0  0  0  0  0  0  0  0  0  0
    7.3792    2.1000    0.0000 C   0  0  0  0  0  0  0  0  0  0  0  0
    6.1668    0.0000    0.0000 F   0  0  0  0  0  0  0  0  0  0  0  0
    7.3792    3.5000    0.0000 C   0  0  0  0  0  0  0  0  0  0  0  0
    6.1668    5.6000    0.0000 Cl  0  0  0  0  0  0  0  0  0  0  0  0
    8.5917    1.4000    0.0000 Cl  0  0  0  0  0  0  0  0  0  0  0  0
    8.5917    4.2000    0.0000 Cl  0  0  0  0  0  0  0  0  0  0  0  0
  1  2  2  0  0  0  0 
  1  3  1  0  0  0  0 
  1  4  1  0  0  0  0 
  2  5  1  0  0  0  0 
  6  3  1  0  0  0  0 
  4  7  1  0  0  0  0 
  4  8  1  0  0  0  0 
  4  9  1  0  0  0  0 
  5  6  1  0  0  0  0 
  5 10  2  0  0  0  0 
  6 11  2  0  0  0  0 
 10 12  1  0  0  0  0 
 10 13  1  0  0  0  0 
 14 11  1  0  0  0  0 
 11 15  1  0  0  0  0 
 12 14  2  0  0  0  0 
 12 16  1  0  0  0  0 
 14 17  1  0  0  0  0 
M  END
> <Name>
Benzimidazole, 4-fluoro-5,6,7-trichloro-2-(trifluoromethyl)-

> <Source>
Name2DMolFile

> <Tox>
5.560

> <CAS>
89427-26-9

$$$$

  CDK

 17 18  0  0  0  0  0  0  0  0999 V2000
   -1.6937   -0.3907    2.4253 Br  0  0  0  0  0  0  0  0  0  0  0  0
    0.1309   -0.6662    2.0413 C   0  0  0  0  0  0  0  0  0  0  0  0
    1.0213   -1.1579    2.9964 C   0  0  0  0  0  0  0  0  0  0  0  0
    0.6569   -0.3853    0.7760 C   0  0  0  0  0  0  0  0  0  0  0  0
    0.8566   -1.5309    4.3056 N   0  0  0  0  0  0  0  0  0  0  0  0
    2.3732   -1.3725    2.7428 C   0  0  0  0  0  0  0  0  0  0  0  0
   -0.1605    0.0900   -0.1785 F   0  0  0  0  0  0  0  0  0  0  0  0
    2.0090   -0.5905    0.4912 C   0  0  0  0  0  0  0  0  0  0  0  0
    2.0716   -1.9423    4.7784 C   0  0  0  0  0  0  0  0  0  0  0  0
    3.0093   -1.8601    3.8613 N   0  0  0  0  0  0  0  0  0  0  0  0
    2.8846   -1.0851    1.4660 C   0  0  0  0  0  0  0  0  0  0  0  0
    2.5995   -0.1689   -1.2713 Br  0  0  0  0  0  0  0  0  0  0  0  0
    2.2345   -2.4110    6.1669 C   0  0  0  0  0  0  0  0  0  0  0  0
    4.7326   -1.3885    1.1524 Br  0  0  0  0  0  0  0  0  0  0  0  0
    3.5149   -2.7824    6.4644 F   0  0  0  0  0  0  0  0  0  0  0  0
    1.9027   -1.4688    7.0985 F   0  0  0  0  0  0  0  0  0  0  0  0
    1.4553   -3.4980    6.4383 F   0  0  0  0  0  0  0  0  0  0  0  0
  1  2  1  0  0  0  0 
  3  2  1  0  0  0  0 
  2  4  2  0  0  0  0 
  5  3  1  0  0  0  0 
  3  6  2  0  0  0  0 
  7  4  1  0  0  0  0 
  4  8  1  0  0  0  0 
  5  9  1  0  0  0  0 
 10  6  1  0  0  0  0 
  6 11  1  0  0  0  0 
 12  8  1  0  0  0  0 
 11  8  2  0  0  0  0 
 10  9  2  0  0  0  0 
  9 13  1  0  0  0  0 
 14 11  1  0  0  0  0 
 15 13  1  0  0  0  0 
 16 13  1  0  0  0  0 
 17 13  1  0  0  0  0 
M  END
> <Name>
Benzimidazole, 6-fluoro-4,5,7-tribromo-2-(trifluoromethyl)-

> <Source>
Chemidplus3DMolFile

> <Tox>
4.660

> <CAS>
89427-29-2

$$$$

  CDK

 17 18  0  0  0  0  0  0  0  0999 V2000
    2.8000    2.8000    0.0000 C   0  0  0  0  0  0  0  0  0  0  0  0
    3.6229    1.6674    0.0000 N   0  0  0  0  0  0  0  0  0  0  0  0
    3.6229    3.9326    0.0000 N   0  0  0  0  0  0  0  0  0  0  0  0
    1.4000    2.8000    0.0000 C   0  0  0  0  0  0  0  0  0  0  0  0
    4.9544    2.1000    0.0000 C   0  0  0  0  0  0  0  0  0  0  0  0
    4.9544    3.5000    0.0000 C   0  0  0  0  0  0  0  0  0  0  0  0
    1.4000    4.2000    0.0000 F   0  0  0  0  0  0  0  0  0  0  0  0
    1.4000    1.4000    0.0000 F   0  0  0  0  0  0  0  0  0  0  0  0
    0.0000    2.8000    0.0000 F   0  0  0  0  0  0  0  0  0  0  0  0
    6.1668    1.4000    0.0000 C   0  0  0  0  0  0  0  0  0  0  0  0
    6.1668    4.2000    0.0000 C   0  0  0  0  0  0  0  0  0  0  0  0
    7.3793    2.1000    0.0000 C   0  0  0  0  0  0  0  0  0  0  0  0
    6.1668    0.0000    0.0000 Cl  0  0  0  0  0  0  0  0  0  0  0  0
    7.3793    3.5000    0.0000 C   0  0  0  0  0  0  0  0  0  0  0  0
    6.1668    5.6000    0.0000 Br  0  0  0  0  0  0  0  0  0  0  0  0
    8.5917    1.4000    0.0000 Cl  0  0  0  0  0  0  0  0  0  0  0  0
    8.5917    4.2000    0.0000 Br  0  0  0  0  0  0  0  0  0  0  0  0
  1  2  2  0  0  0  0 
  1  3  1  0  0  0  0 
  1  4  1  0  0  0  0 
  2  5  1  0  0  0  0 
  6  3  1  0  0  0  0 
  4  7  1  0  0  0  0 
  4  8  1  0  0  0  0 
  4  9  1  0  0  0  0 
  5  6  1  0  0  0  0 
  5 10  2  0  0  0  0 
  6 11  2  0  0  0  0 
 10 12  1  0  0  0  0 
 10 13  1  0  0  0  0 
 14 11  1  0  0  0  0 
 11 15  1  0  0  0  0 
 12 14  2  0  0  0  0 
 12 16  1  0  0  0  0 
 14 17  1  0  0  0  0 
M  END
> <Name>
Benzimidazole, 6,7-dibromo-4,5-dichloro-2-(trifluoromethyl)-

> <Source>
Name2DMolFile

> <Tox>
5.080

> <CAS>
89427-34-9

$$$$

  CDK

 20 21  0  0  0  0  0  0  0  0999 V2000
    2.6272   -0.2767   -1.1094 Cl  0  0  0  0  0  0  0  0  0  0  0  0
    2.0131   -0.5740    0.4938 C   0  0  0  0  0  0  0  0  0  0  0  0
    2.8979   -1.0325    1.4779 C   0  0  0  0  0  0  0  0  0  0  0  0
    0.6641   -0.3567    0.7837 C   0  0  0  0  0  0  0  0  0  0  0  0
    4.5993   -1.3168    1.1421 S   0  0  0  0  0  0  0  0  0  0  0  0
    2.3988   -1.2708    2.7695 C   0  0  0  0  0  0  0  0  0  0  0  0
   -0.4160    0.2170   -0.4602 Cl  0  0  0  0  0  0  0  0  0  0  0  0
    0.1503   -0.5888    2.0639 C   0  0  0  0  0  0  0  0  0  0  0  0
    5.0903   -2.2863    2.1062 O   0  0  0  0  0  0  0  0  0  0  0  0
    4.7430   -1.5634   -0.2823 O   0  0  0  0  0  0  0  0  0  0  0  0
    5.2525    0.2164    1.5093 N   0  0  0  0  0  0  0  0  0  0  0  0
    3.0457   -1.7161    3.8994 N   0  0  0  0  0  0  0  0  0  0  0  0
    1.0497   -1.0451    3.0281 C   0  0  0  0  0  0  0  0  0  0  0  0
   -1.5018   -0.3446    2.4926 Cl  0  0  0  0  0  0  0  0  0  0  0  0
    2.1168   -1.7631    4.8281 C   0  0  0  0  0  0  0  0  0  0  0  0
    0.8977   -1.3680    4.3521 N   0  0  0  0  0  0  0  0  0  0  0  0
    2.2933   -2.1760    6.2327 C   0  0  0  0  0  0  0  0  0  0  0  0
    3.5770   -2.5336    6.5327 F   0  0  0  0  0  0  0  0  0  0  0  0
    1.9685   -1.1979    7.1289 F   0  0  0  0  0  0  0  0  0  0  0  0
    1.5184   -3.2524    6.5542 F   0  0  0  0  0  0  0  0  0  0  0  0
  1  2  1  0  0  0  0 
  3  2  2  0  0  0  0 
  2  4  1  0  0  0  0 
  5  3  1  0  0  0  0 
  6  3  1  0  0  0  0 
  7  4  1  0  0  0  0 
  8  4  2  0  0  0  0 
  5  9  2  0  0  0  0 
  5 10  2  0  0  0  0 
  5 11  1  0  0  0  0 
 12  6  1  0  0  0  0 
  6 13  2  0  0  0  0 
 14  8  1  0  0  0  0 
 13  8  1  0  0  0  0 
 12 15  2  0  0  0  0 
 16 13  1  0  0  0  0 
 16 15  1  0  0  0  0 
 15 17  1  0  0  0  0 
 18 17  1  0  0  0  0 
 19 17  1  0  0  0  0 
 20 17  1  0  0  0  0 
M  END
> <Name>
4-Benzimidazolesulfonamide, 5,6,7-trichloro-2-(trifluoromethyl)-

> <Source>
Chemidplus3DMolFile

> <Tox>
3.647

> <CAS>
89427-44-1

$$$$

  CDK

 18 19  0  0  0  0  0  0  0  0999 V2000
    9.8041    2.1000    0.0000 C   0  0  0  0  0  0  0  0  0  0  0  0
   11.0166    1.4000    0.0000 C   0  0  0  0  0  0  0  0  0  0  0  0
    9.8041    3.5000    0.0000 O   0  0  0  0  0  0  0  0  0  0  0  0
    8.5917    1.4000    0.0000 N   0  0  0  0  0  0  0  0  0  0  0  0
   11.0166    0.0000    0.0000 C   0  0  0  0  0  0  0  0  0  0  0  0
    7.3792    2.1000    0.0000 C   0  0  0  0  0  0  0  0  0  0  0  0
    6.1668    1.4000    0.0000 C   0  0  0  0  0  0  0  0  0  0  0  0
    7.3792    3.5000    0.0000 C   0  0  0  0  0  0  0  0  0  0  0  0
    4.9544    2.1000    0.0000 C   0  0  0  0  0  0  0  0  0  0  0  0
    6.1668    4.2000    0.0000 C   0  0  0  0  0  0  0  0  0  0  0  0
    3.6229    1.6674    0.0000 N   0  0  0  0  0  0  0  0  0  0  0  0
    4.9544    3.5000    0.0000 C   0  0  0  0  0  0  0  0  0  0  0  0
    2.8000    2.8000    0.0000 C   0  0  0  0  0  0  0  0  0  0  0  0
    3.6229    3.9326    0.0000 N   0  0  0  0  0  0  0  0  0  0  0  0
    1.4000    2.8000    0.0000 C   0  0  0  0  0  0  0  0  0  0  0  0
    1.4000    1.4000    0.0000 F   0  0  0  0  0  0  0  0  0  0  0  0
    0.0000    2.8000    0.0000 F   0  0  0  0  0  0  0  0  0  0  0  0
    1.4000    4.2000    0.0000 F   0  0  0  0  0  0  0  0  0  0  0  0
  1  2  1  0  0  0  0 
  1  3  2  0  0  0  0 
  1  4  1  0  0  0  0 
  2  5  1  0  0  0  0 
  4  6  1  0  0  0  0 
  7  6  1  0  0  0  0 
  6  8  2  0  0  0  0 
  9  7  2  0  0  0  0 
  8 10  1  0  0  0  0 
 11  9  1  0  0  0  0 
  9 12  1  0  0  0  0 
 12 10  2  0  0  0  0 
 13 11  2  0  0  0  0 
 12 14  1  0  0  0  0 
 13 14  1  0  0  0  0 
 13 15  1  0  0  0  0 
 15 16  1  0  0  0  0 
 15 17  1  0  0  0  0 
 15 18  1  0  0  0  0 
M  END
> <Name>
Propionamide, N-(2-(trifluoromethyl)-5-benzimidazolyl)-

> <Source>
Name2DMolFile

> <Tox>
4.460

> <CAS>
89427-48-5

$$$$

  CDK

 12 11  0  0  0  0  0  0  0  0999 V2000
    1.7214   -0.9653   -0.5785 S   0  0  0  0  0  0  0  0  0  0  0  0
    2.6821    0.8379   -0.1024 P   0  0  0  0  0  0  0  0  0  0  0  0
    2.2248   -2.1248    0.7082 C   0  0  0  0  0  0  0  0  0  0  0  0
    2.1055    1.4526    1.2839 O   0  0  0  0  0  0  0  0  0  0  0  0
    4.1750    0.6462   -0.0546 O   0  0  0  0  0  0  0  0  0  0  0  0
    2.2372    2.0600   -1.3368 C   0  0  0  0  0  0  0  0  0  0  0  0
    1.5876   -3.4902    0.4759 C   0  0  0  0  0  0  0  0  0  0  0  0
    0.7237    1.7178    1.4453 C   0  0  0  0  0  0  0  0  0  0  0  0
    2.8556    3.4137   -1.0583 C   0  0  0  0  0  0  0  0  0  0  0  0
    2.0069   -4.4806    1.5524 C   0  0  0  0  0  0  0  0  0  0  0  0
    0.4911    2.2841    2.8376 C   0  0  0  0  0  0  0  0  0  0  0  0
   -0.9765    2.5800    3.0890 C   0  0  0  0  0  0  0  0  0  0  0  0
  1  2  1  0  0  0  0 
  1  3  1  0  0  0  0 
  2  4  1  0  0  0  0 
  2  5  2  0  0  0  0 
  2  6  1  0  0  0  0 
  3  7  1  0  0  0  0 
  4  8  1  0  0  0  0 
  6  9  1  0  0  0  0 
  7 10  1  0  0  0  0 
  8 11  1  0  0  0  0 
 11 12  1  0  0  0  0 
M  END
> <Name>
Phosphonothioic acid, ethyl-, O,S-dipropyl ester

> <Source>
Chemidplus3DMolFile

> <Tox>
5.068

> <CAS>
90220-15-8

$$$$

  CDK

 10  9  0  0  0  0  0  0  0  0999 V2000
    1.7214   -0.9653   -0.5785 S   0  0  0  0  0  0  0  0  0  0  0  0
    2.6821    0.8379   -0.1024 P   0  0  0  0  0  0  0  0  0  0  0  0
    2.2248   -2.1248    0.7082 C   0  0  0  0  0  0  0  0  0  0  0  0
    2.1055    1.4526    1.2839 O   0  0  0  0  0  0  0  0  0  0  0  0
    4.1750    0.6462   -0.0546 O   0  0  0  0  0  0  0  0  0  0  0  0
    2.2372    2.0600   -1.3368 C   0  0  0  0  0  0  0  0  0  0  0  0
    0.7237    1.7178    1.4453 C   0  0  0  0  0  0  0  0  0  0  0  0
    2.8556    3.4137   -1.0583 C   0  0  0  0  0  0  0  0  0  0  0  0
    0.4911    2.2841    2.8376 C   0  0  0  0  0  0  0  0  0  0  0  0
   -0.9765    2.5800    3.0890 C   0  0  0  0  0  0  0  0  0  0  0  0
  1  2  1  0  0  0  0 
  1  3  1  0  0  0  0 
  2  4  1  0  0  0  0 
  2  5  2  0  0  0  0 
  2  6  1  0  0  0  0 
  4  7  1  0  0  0  0 
  6  8  1  0  0  0  0 
  7  9  1  0  0  0  0 
  9 10  1  0  0  0  0 
M  END
> <Name>
Phosphonothioic acid, ethyl-, S-methyl O-propyl ester

> <Source>
Chemidplus3DMolFile

> <Tox>
4.670

> <CAS>
90220-17-0

$$$$

  CDK

  9  8  0  0  0  0  0  0  0  0999 V2000
    4.2136    0.0000    0.0000 C   0  0  0  0  0  0  0  0  0  0  0  0
    3.2104    0.0000    0.0000 S   0  0  0  0  0  0  0  0  0  0  0  0
    2.3576    0.5016    0.0000 P   0  0  0  0  0  0  0  0  0  0  0  0
    1.5049    0.0000    0.0000 O   0  0  0  0  0  0  0  0  0  0  0  0
    1.5049    1.0032    0.0000 C   0  0  0  0  0  0  0  0  0  0  0  0
    3.2104    1.0032    0.0000 O   0  0  0  0  0  0  0  0  0  0  0  0
    0.5016    0.0000    0.0000 C   0  0  0  0  0  0  0  0  0  0  0  0
    0.5016    1.0032    0.0000 C   0  0  0  0  0  0  0  0  0  0  0  0
    0.0000    1.9062    0.0000 C   0  0  0  0  0  0  0  0  0  0  0  0
  1  2  1  0  0  0  0 
  2  3  1  0  0  0  0 
  4  3  1  0  0  0  0 
  5  3  1  0  0  0  0 
  3  6  2  0  0  0  0 
  7  4  1  0  0  0  0 
  5  8  1  0  0  0  0 
  8  9  1  0  0  0  0 
M  END
> <Name>
Phosphonothioic acid, propyl-, O,S-dimethyl ester

> <Source>
NIST2DMolFile

> <Tox>
3.828

> <CAS>
90220-19-2

$$$$

  CDK

  9  8  0  0  0  0  0  0  0  0999 V2000
    1.7214   -0.9653   -0.5785 S   0  0  0  0  0  0  0  0  0  0  0  0
    2.6821    0.8379   -0.1024 P   0  0  0  0  0  0  0  0  0  0  0  0
    2.2248   -2.1248    0.7082 C   0  0  0  0  0  0  0  0  0  0  0  0
    2.1055    1.4526    1.2839 O   0  0  0  0  0  0  0  0  0  0  0  0
    4.1750    0.6462   -0.0546 O   0  0  0  0  0  0  0  0  0  0  0  0
    2.2372    2.0600   -1.3368 C   0  0  0  0  0  0  0  0  0  0  0  0
    1.5914   -3.4838    0.4782 C   0  0  0  0  0  0  0  0  0  0  0  0
    0.7237    1.7178    1.4453 C   0  0  0  0  0  0  0  0  0  0  0  0
    2.8556    3.4137   -1.0583 C   0  0  0  0  0  0  0  0  0  0  0  0
  1  2  1  0  0  0  0 
  1  3  1  0  0  0  0 
  2  4  1  0  0  0  0 
  2  5  2  0  0  0  0 
  2  6  1  0  0  0  0 
  3  7  1  0  0  0  0 
  4  8  1  0  0  0  0 
  6  9  1  0  0  0  0 
M  END
> <Name>
Phosphonothioic acid, ethyl-, S-ethyl O-methyl ester

> <Source>
Chemidplus3DMolFile

> <Tox>
4.230

> <CAS>
90245-33-3

$$$$

  CDK

 33 34  0  0  0  0  0  0  0  0999 V2000
   10.9119    6.3000    0.0000 C   0  0  0  0  0  0  0  0  0  0  0  0
    9.6995    7.0000    0.0000 N   0  0  0  0  0  0  0  0  0  0  0  0
   12.1244    7.0000    0.0000 O   0  0  0  0  0  0  0  0  0  0  0  0
   10.9119    4.9000    0.0000 O   0  0  0  0  0  0  0  0  0  0  0  0
    8.4870    6.3000    0.0000 S   0  0  0  0  0  0  0  0  0  0  0  0
    9.6995    8.4000    0.0000 C   0  0  0  0  0  0  0  0  0  0  0  0
   12.1244    4.2000    0.0000 C   0  0  0  0  0  0  0  0  0  0  0  0
    7.2746    7.0000    0.0000 N   0  0  0  0  0  0  0  0  0  0  0  0
   13.3368    4.9000    0.0000 C   0  0  0  0  0  0  0  0  0  0  0  0
   12.1244    2.8000    0.0000 C   0  0  0  0  0  0  0  0  0  0  0  0
    6.0622    6.3000    0.0000 C   0  0  0  0  0  0  0  0  0  0  0  0
    7.2746    8.4000    0.0000 C   0  0  0  0  0  0  0  0  0  0  0  0
   14.5492    4.2000    0.0000 C   0  0  0  0  0  0  0  0  0  0  0  0
   10.9119    2.1000    0.0000 C   0  0  0  0  0  0  0  0  0  0  0  0
   13.3368    2.1000    0.0000 C   0  0  0  0  0  0  0  0  0  0  0  0
    6.0622    4.9000    0.0000 O   0  0  0  0  0  0  0  0  0  0  0  0
    4.8497    7.0000    0.0000 O   0  0  0  0  0  0  0  0  0  0  0  0
   14.5492    2.8000    0.0000 C   0  0  0  0  0  0  0  0  0  0  0  0
   10.9119    0.7000    0.0000 C   0  0  0  0  0  0  0  0  0  0  0  0
   13.3368    0.7000    0.0000 C   0  0  0  0  0  0  0  0  0  0  0  0
    4.8497    4.2000    0.0000 N   0  0  0  0  0  0  0  0  0  0  0  0
   12.1244    0.0000    0.0000 C   0  0  0  0  0  0  0  0  0  0  0  0
    4.8497    2.8000    0.0000 C   0  0  0  0  0  0  0  0  0  0  0  0
    3.6373    2.1000    0.0000 C   0  0  0  0  0  0  0  0  0  0  0  0
    6.0622    2.1000    0.0000 C   0  0  0  0  0  0  0  0  0  0  0  0
    2.4249    2.8000    0.0000 N   0  0  0  0  0  0  0  0  0  0  0  0
    3.6373    0.7000    0.0000 C   0  0  0  0  0  0  0  0  0  0  0  0
    7.2746    2.8000    0.0000 O   0  0  0  0  0  0  0  0  0  0  0  0
    6.0622    0.7000    0.0000 N   0  0  0  0  0  0  0  0  0  0  0  0
    1.2124    2.1000    0.0000 O   0  0  0  0  0  0  0  0  0  0  0  0
    7.2746    0.0000    0.0000 C   0  0  0  0  0  0  0  0  0  0  0  0
    4.8497    0.0000    0.0000 C   0  0  0  0  0  0  0  0  0  0  0  0
    0.0000    2.8000    0.0000 C   0  0  0  0  0  0  0  0  0  0  0  0
  1  2  1  0  0  0  0 
  1  3  2  0  0  0  0 
  1  4  1  0  0  0  0 
  2  5  1  0  0  0  0 
  2  6  1  0  0  0  0 
  4  7  1  0  0  0  0 
  5  8  1  0  0  0  0 
  7  9  1  0  0  0  0 
  7 10  2  0  0  0  0 
  8 11  1  0  0  0  0 
  8 12  1  0  0  0  0 
  9 13  2  0  0  0  0 
 14 10  1  0  0  0  0 
 15 10  1  0  0  0  0 
 11 16  1  0  0  0  0 
 11 17  2  0  0  0  0 
 13 18  1  0  0  0  0 
 19 14  2  0  0  0  0 
 18 15  2  0  0  0  0 
 15 20  1  0  0  0  0 
 16 21  1  0  0  0  0 
 22 19  1  0  0  0  0 
 20 22  2  0  0  0  0 
 21 23  2  0  0  0  0 
 23 24  1  0  0  0  0 
 23 25  1  0  0  0  0 
 24 26  2  0  0  0  0 
 24 27  1  0  0  0  0 
 25 28  2  0  0  0  0 
 25 29  1  0  0  0  0 
 26 30  1  0  0  0  0 
 29 31  1  0  0  0  0 
 29 32  1  0  0  0  0 
 30 33  1  0  0  0  0 
M  END
> <Name>
6,11-Dioxa-3-thia-2,4,7,10-tetraazadodeca-7,9-dienoic acid, 8-((dimethylamino)carbonyl)-5-oxo-2,4,9-trimethyl-, 1-naphthalenyl ester

> <Source>
Name2DMolFile

> <Tox>
3.473

> <CAS>
90293-53-1

$$$$

  CDK

 27 28  0  0  0  0  0  0  0  0999 V2000
    9.2618   -3.2521    0.0000 S   0  0  0  0  0  0  0  0  0  0  0  0
    8.0928   -3.9565    0.0000 N   0  0  0  0  0  0  0  0  0  0  0  0
   10.4008   -2.5627    0.0000 C   0  0  0  0  0  0  0  0  0  0  0  0
    8.5574   -2.0832    0.0000 O   0  0  0  0  0  0  0  0  0  0  0  0
    9.9362   -4.3911    0.0000 O   0  0  0  0  0  0  0  0  0  0  0  0
    6.9239   -3.2971    0.0000 C   0  0  0  0  0  0  0  0  0  0  0  0
   11.5398   -3.2072    0.0000 C   0  0  0  0  0  0  0  0  0  0  0  0
   10.4008   -1.1989    0.0000 C   0  0  0  0  0  0  0  0  0  0  0  0
    5.7849   -3.9565    0.0000 N   0  0  0  0  0  0  0  0  0  0  0  0
    6.9239   -1.9483    0.0000 O   0  0  0  0  0  0  0  0  0  0  0  0
   11.5398   -4.5260    0.0000 C   0  0  0  0  0  0  0  0  0  0  0  0
   12.6938   -2.5627    0.0000 C   0  0  0  0  0  0  0  0  0  0  0  0
   11.5398   -0.5545    0.0000 C   0  0  0  0  0  0  0  0  0  0  0  0
    4.6159   -3.2971    0.0000 C   0  0  0  0  0  0  0  0  0  0  0  0
   10.4008   -5.1854    0.0000 O   0  0  0  0  0  0  0  0  0  0  0  0
   12.6938   -5.1704    0.0000 O   0  0  0  0  0  0  0  0  0  0  0  0
   12.6938   -1.2139    0.0000 C   0  0  0  0  0  0  0  0  0  0  0  0
    4.5859   -1.9633    0.0000 N   0  0  0  0  0  0  0  0  0  0  0  0
    3.4919   -3.9565    0.0000 N   0  0  0  0  0  0  0  0  0  0  0  0
   13.8327   -4.4960    0.0000 C   0  0  0  0  0  0  0  0  0  0  0  0
    3.4619   -1.3038    0.0000 C   0  0  0  0  0  0  0  0  0  0  0  0
    2.3229   -3.2971    0.0000 C   0  0  0  0  0  0  0  0  0  0  0  0
   14.9867   -5.1704    0.0000 C   0  0  0  0  0  0  0  0  0  0  0  0
    3.4619   -0.0000    0.0000 Cl  0  0  0  0  0  0  0  0  0  0  0  0
    2.3229   -1.9782    0.0000 C   0  0  0  0  0  0  0  0  0  0  0  0
    1.1540   -3.9265    0.0000 O   0  0  0  0  0  0  0  0  0  0  0  0
    0.0000   -3.2221    0.0000 C   0  0  0  0  0  0  0  0  0  0  0  0
  1  2  1  0  0  0  0 
  1  3  1  0  0  0  0 
  1  4  2  0  0  0  0 
  1  5  2  0  0  0  0 
  2  6  1  0  0  0  0 
  7  3  1  0  0  0  0 
  3  8  2  0  0  0  0 
  6  9  1  0  0  0  0 
  6 10  2  0  0  0  0 
  7 11  1  0  0  0  0 
  7 12  2  0  0  0  0 
  8 13  1  0  0  0  0 
 14  9  1  0  0  0  0 
 11 15  2  0  0  0  0 
 11 16  1  0  0  0  0 
 12 17  1  0  0  0  0 
 17 13  2  0  0  0  0 
 14 18  1  0  0  0  0 
 14 19  2  0  0  0  0 
 16 20  1  0  0  0  0 
 18 21  2  0  0  0  0 
 19 22  1  0  0  0  0 
 20 23  1  0  0  0  0 
 21 24  1  0  0  0  0 
 21 25  1  0  0  0  0 
 22 25  2  0  0  0  0 
 22 26  1  0  0  0  0 
 26 27  1  0  0  0  0 
M  END
> <Name>
Benzoic acid, 2-(((((4-chloro-6-methoxy-2-pyrimidinyl)amino)carbonyl)amino)sulfonyl)-, ethyl ester

> <Source>
DSSTox2DMolFile

> <Tox>
2.005

> <CAS>
90982-32-4

$$$$

  CDK

 16 15  0  0  0  0  0  0  0  0999 V2000
    2.0964   -7.1186   -7.4222 Cl  0  0  0  0  0  0  0  0  0  0  0  0
    1.9343   -6.9273   -5.6589 C   0  0  0  0  0  0  0  0  0  0  0  0
    0.4765   -6.9558   -5.2315 C   0  0  0  0  0  0  0  0  0  0  0  0
    0.3119   -6.7968   -3.7921 N   0  0  0  0  0  0  0  0  0  0  0  0
    0.3061   -8.0191   -2.9381 N   0  0  0  0  0  0  0  0  0  0  0  0
    0.1654   -5.5282   -3.2091 C   0  0  0  0  0  0  0  0  0  0  0  0
    0.4434   -9.0687   -3.5755 O   0  0  0  0  0  0  0  0  0  0  0  0
    0.1672   -4.4850   -3.8707 O   0  0  0  0  0  0  0  0  0  0  0  0
    0.0187   -5.5212   -1.8237 N   0  0  0  0  0  0  0  0  0  0  0  0
   -0.1402   -4.2941   -1.0770 C   0  0  0  0  0  0  0  0  0  0  0  0
    1.1907   -3.7173   -0.6341 C   0  0  0  0  0  0  0  0  0  0  0  0
    2.0695   -4.8064    0.4426 S   0  0  0  0  0  0  0  0  0  0  0  0
    1.3068   -4.9500    1.6718 O   0  0  0  0  0  0  0  0  0  0  0  0
    2.4489   -5.9815   -0.3252 O   0  0  0  0  0  0  0  0  0  0  0  0
    3.4804   -3.8915    0.7502 N   0  0  0  0  0  0  0  0  0  0  0  0
    4.2622   -3.3774   -0.3887 C   0  0  0  0  0  0  0  0  0  0  0  0
  1  2  1  0  0  0  0 
  3  2  1  0  0  0  0 
  4  3  1  0  0  0  0 
  4  5  1  0  0  0  0 
  4  6  1  0  0  0  0 
  7  5  2  0  0  0  0 
  8  6  2  0  0  0  0 
  9  6  1  0  0  0  0 
  9 10  1  0  0  0  0 
 11 10  1  0  0  0  0 
 12 11  1  0  0  0  0 
 12 13  2  0  0  0  0 
 12 14  2  0  0  0  0 
 12 15  1  0  0  0  0 
 15 16  1  0  0  0  0 
M  END
> <Name>
Ethanesulfonamide, 2-((((2-chloroethyl)nitrosoamino)carbonyl)amino)-N-methyl-

> <Source>
Chemidplus3DMolFile

> <Tox>
3.834

> <CAS>
91893-37-7

$$$$

  CDK

 20 19  0  0  0  0  0  0  0  0999 V2000
   -4.0408    3.5625    5.0262 Cl  0  0  0  0  0  0  0  0  0  0  0  0
   -3.1751    2.4966    3.8921 C   0  0  0  0  0  0  0  0  0  0  0  0
   -2.7167    1.2190    4.5748 C   0  0  0  0  0  0  0  0  0  0  0  0
   -2.0001    0.3275    3.6714 N   0  0  0  0  0  0  0  0  0  0  0  0
   -2.7815   -0.6833    2.9025 N   0  0  0  0  0  0  0  0  0  0  0  0
   -0.6075    0.4100    3.5155 C   0  0  0  0  0  0  0  0  0  0  0  0
   -3.9952   -0.6497    3.1321 O   0  0  0  0  0  0  0  0  0  0  0  0
    0.0852    1.2310    4.1255 O   0  0  0  0  0  0  0  0  0  0  0  0
   -0.0438   -0.5006    2.6176 N   0  0  0  0  0  0  0  0  0  0  0  0
    1.3670   -0.5396    2.3486 C   0  0  0  0  0  0  0  0  0  0  0  0
    1.7642    0.3708    1.1910 C   0  0  0  0  0  0  0  0  0  0  0  0
    1.0876   -0.0229   -0.1263 C   0  0  0  0  0  0  0  0  0  0  0  0
    1.4988    0.9191   -1.2618 C   0  0  0  0  0  0  0  0  0  0  0  0
    0.8443    0.5678   -2.5907 C   0  0  0  0  0  0  0  0  0  0  0  0
    1.3471    1.6287   -3.9071 S   0  0  0  0  0  0  0  0  0  0  0  0
    2.7675    1.4136   -4.1422 O   0  0  0  0  0  0  0  0  0  0  0  0
    0.8629    2.9703   -3.6155 O   0  0  0  0  0  0  0  0  0  0  0  0
    0.4567    0.9880   -5.2335 N   0  0  0  0  0  0  0  0  0  0  0  0
    0.6988   -0.4276   -5.6088 C   0  0  0  0  0  0  0  0  0  0  0  0
   -0.9753    1.3611   -5.3485 C   0  0  0  0  0  0  0  0  0  0  0  0
  1  2  1  0  0  0  0 
  3  2  1  0  0  0  0 
  4  3  1  0  0  0  0 
  4  5  1  0  0  0  0 
  4  6  1  0  0  0  0 
  7  5  2  0  0  0  0 
  8  6  2  0  0  0  0 
  9  6  1  0  0  0  0 
  9 10  1  0  0  0  0 
 11 10  1  0  0  0  0 
 12 11  1  0  0  0  0 
 13 12  1  0  0  0  0 
 13 14  1  0  0  0  0 
 15 14  1  0  0  0  0 
 15 16  2  0  0  0  0 
 15 17  2  0  0  0  0 
 15 18  1  0  0  0  0 
 18 19  1  0  0  0  0 
 18 20  1  0  0  0  0 
M  END
> <Name>
1-Pentanesulfonamide, 5-((((2-chloroethyl)nitrosoamino)carbonyl)amino)-N,N-dimethyl-

> <Source>
Chemidplus3DMolFile

> <Tox>
3.119

> <CAS>
91893-59-3

$$$$

  CDK

 16 15  0  0  0  0  0  0  0  0999 V2000
    4.2000    4.8497    0.0000 C   0  0  0  0  0  0  0  0  0  0  0  0
    4.9000    6.0622    0.0000 C   0  0  0  0  0  0  0  0  0  0  0  0
    2.8000    4.8497    0.0000 S   0  0  0  0  0  0  0  0  0  0  0  0
    4.9000    3.6373    0.0000 N   0  0  0  0  0  0  0  0  0  0  0  0
    5.6000    7.2746    0.0000 C   0  0  0  0  0  0  0  0  0  0  0  0
    6.1124    5.3622    0.0000 C   0  0  0  0  0  0  0  0  0  0  0  0
    3.6876    6.7622    0.0000 C   0  0  0  0  0  0  0  0  0  0  0  0
    2.1000    3.6373    0.0000 C   0  0  0  0  0  0  0  0  0  0  0  0
    4.2000    2.4249    0.0000 O   0  0  0  0  0  0  0  0  0  0  0  0
    0.7000    3.6373    0.0000 C   0  0  0  0  0  0  0  0  0  0  0  0
    4.9000    1.2124    0.0000 C   0  0  0  0  0  0  0  0  0  0  0  0
    0.0000    2.4249    0.0000 O   0  0  0  0  0  0  0  0  0  0  0  0
    0.0000    4.8497    0.0000 N   0  0  0  0  0  0  0  0  0  0  0  0
    4.2000    0.0000    0.0000 O   0  0  0  0  0  0  0  0  0  0  0  0
    6.3000    1.2124    0.0000 N   0  0  0  0  0  0  0  0  0  0  0  0
    7.0000    0.0000    0.0000 C   0  0  0  0  0  0  0  0  0  0  0  0
  1  2  1  0  0  0  0 
  1  3  1  0  0  0  0 
  1  4  2  0  0  0  0 
  2  5  1  0  0  0  0 
  2  6  1  0  0  0  0 
  2  7  1  0  0  0  0 
  3  8  1  0  0  0  0 
  4  9  1  0  0  0  0 
  8 10  1  0  0  0  0 
  9 11  1  0  0  0  0 
 10 12  2  0  0  0  0 
 10 13  1  0  0  0  0 
 11 14  2  0  0  0  0 
 11 15  1  0  0  0  0 
 15 16  1  0  0  0  0 
M  END
> <Name>
Propanimidothioic acid, 2,2-dimethyl-N-(((methylamino)carbonyl)oxy)-, 2-amino-2-oxoethyl ester

> <Source>
Name2DMolFile

> <Tox>
4.544

> <CAS>
92065-91-3

$$$$

  CDK

 24 26  0  0  0  0  0  0  0  0999 V2000
    6.8228   -0.7186   -0.9938 C   0  0  0  0  0  0  0  0  0  0  0  0
    5.3042   -0.9016   -1.0295 C   0  0  0  0  0  0  0  0  0  0  0  0
    4.6789   -0.2135    0.1856 C   0  0  0  0  0  0  0  0  0  0  0  0
    5.2375   -0.8352    1.4672 C   0  0  0  0  0  0  0  0  0  0  0  0
    5.0137    1.2791    0.1548 C   0  0  0  0  0  0  0  0  0  0  0  0
    3.1603   -0.3965    0.1499 C   0  0  0  0  0  0  0  0  0  0  0  0
    2.5350    0.2916    1.3650 C   0  0  0  0  0  0  0  0  0  0  0  0
    2.6017    0.2251   -1.1317 C   0  0  0  0  0  0  0  0  0  0  0  0
    1.0164    0.1086    1.3293 C   0  0  0  0  0  0  0  0  0  0  0  0
    1.0831    0.0422   -1.1674 C   0  0  0  0  0  0  0  0  0  0  0  0
    0.4579    0.7302    0.0477 C   0  0  0  0  0  0  0  0  0  0  0  0
   -1.0379    0.5500    0.0126 C   0  0  0  0  0  0  0  0  0  0  0  0
   -1.8375    1.6353   -0.0377 C   0  0  0  0  0  0  0  0  0  0  0  0
   -1.6034   -0.8022    0.0273 C   0  0  0  0  0  0  0  0  0  0  0  0
   -1.2877    2.8717   -0.0554 O   0  0  0  0  0  0  0  0  0  0  0  0
   -3.3118    1.4880   -0.0741 C   0  0  0  0  0  0  0  0  0  0  0  0
   -3.0716   -0.9895   -0.0018 C   0  0  0  0  0  0  0  0  0  0  0  0
   -0.8674   -1.7690    0.0727 O   0  0  0  0  0  0  0  0  0  0  0  0
   -4.0229    2.4713   -0.1200 O   0  0  0  0  0  0  0  0  0  0  0  0
   -3.9117    0.1369   -0.0547 C   0  0  0  0  0  0  0  0  0  0  0  0
   -3.6263   -2.2626    0.0163 C   0  0  0  0  0  0  0  0  0  0  0  0
   -5.2913   -0.0310   -0.0885 C   0  0  0  0  0  0  0  0  0  0  0  0
   -5.0042   -2.4146   -0.0178 C   0  0  0  0  0  0  0  0  0  0  0  0
   -5.8298   -1.3080   -0.0697 C   0  0  0  0  0  0  0  0  0  0  0  0
  1  2  1  0  0  0  0 
  2  3  1  0  0  0  0 
  3  4  1  0  0  0  0 
  3  5  1  0  0  0  0 
  3  6  1  0  0  0  0 
  6  7  1  0  0  0  0 
  6  8  1  0  0  0  0 
  7  9  1  0  0  0  0 
 10  8  1  0  0  0  0 
  9 11  1  0  0  0  0 
 11 10  1  0  0  0  0 
 11 12  1  0  0  0  0 
 12 13  2  0  0  0  0 
 12 14  1  0  0  0  0 
 13 15  1  0  0  0  0 
 13 16  1  0  0  0  0 
 17 14  1  0  0  0  0 
 14 18  2  0  0  0  0 
 16 19  2  0  0  0  0 
 16 20  1  0  0  0  0 
 20 17  2  0  0  0  0 
 17 21  1  0  0  0  0 
 20 22  1  0  0  0  0 
 21 23  2  0  0  0  0 
 24 22  2  0  0  0  0 
 23 24  1  0  0  0  0 
M  END
> <Name>
1,4-Naphthalenedione, 2-(4-(1,1-dimethylpropyl)cyclohexyl)-3-hydroxy-

> <Source>
Chemidplus3DMolFile

> <Tox>
2.213

> <CAS>
92448-79-8

$$$$

  CDK

 21 21  0  0  0  0  0  0  0  0999 V2000
    6.2497    1.4000    0.0000 C   0  0  0  0  0  0  0  0  0  0  0  0
    4.8497    1.4000    0.0000 C   0  0  0  0  0  0  0  0  0  0  0  0
    6.9497    0.1876    0.0000 O   0  0  0  0  0  0  0  0  0  0  0  0
    6.9497    2.6124    0.0000 N   0  0  0  0  0  0  0  0  0  0  0  0
    3.4497    1.4000    0.0000 C   0  0  0  0  0  0  0  0  0  0  0  0
    4.8497    0.0000    0.0000 C   0  0  0  0  0  0  0  0  0  0  0  0
    4.8497    2.8000    0.0000 O   0  0  0  0  0  0  0  0  0  0  0  0
    8.3497    2.6124    0.0000 C   0  0  0  0  0  0  0  0  0  0  0  0
    3.6373    3.5000    0.0000 C   0  0  0  0  0  0  0  0  0  0  0  0
    9.0497    3.8249    0.0000 C   0  0  0  0  0  0  0  0  0  0  0  0
    2.4249    2.8000    0.0000 C   0  0  0  0  0  0  0  0  0  0  0  0
    3.6373    4.9000    0.0000 C   0  0  0  0  0  0  0  0  0  0  0  0
   10.4497    3.8249    0.0000 N   0  0  0  0  0  0  0  0  0  0  0  0
    1.2124    3.5000    0.0000 C   0  0  0  0  0  0  0  0  0  0  0  0
    2.4249    5.6000    0.0000 C   0  0  0  0  0  0  0  0  0  0  0  0
   11.1497    5.0373    0.0000 C   0  0  0  0  0  0  0  0  0  0  0  0
   11.1497    2.6124    0.0000 C   0  0  0  0  0  0  0  0  0  0  0  0
    1.2124    4.9000    0.0000 C   0  0  0  0  0  0  0  0  0  0  0  0
   10.4497    6.2497    0.0000 C   0  0  0  0  0  0  0  0  0  0  0  0
   12.5497    2.6124    0.0000 C   0  0  0  0  0  0  0  0  0  0  0  0
    0.0000    5.6000    0.0000 Cl  0  0  0  0  0  0  0  0  0  0  0  0
  1  2  1  0  0  0  0 
  1  3  2  0  0  0  0 
  1  4  1  0  0  0  0 
  2  5  1  0  0  0  0 
  2  6  1  0  0  0  0 
  2  7  1  0  0  0  0 
  4  8  1  0  0  0  0 
  7  9  1  0  0  0  0 
  8 10  1  0  0  0  0 
  9 11  1  0  0  0  0 
  9 12  2  0  0  0  0 
 10 13  1  0  0  0  0 
 11 14  2  0  0  0  0 
 15 12  1  0  0  0  0 
 13 16  1  0  0  0  0 
 13 17  1  0  0  0  0 
 14 18  1  0  0  0  0 
 18 15  2  0  0  0  0 
 16 19  1  0  0  0  0 
 17 20  1  0  0  0  0 
 18 21  1  0  0  0  0 
M  END
> <Name>
Propionamide, 2-(p-chlorophenoxy)-N-(2-(diethylamino)ethyl)-2-methyl-

> <Source>
Name2DMolFile

> <Tox>
3.018

> <CAS>
93144-68-4

$$$$

  CDK

 13 13  0  0  0  0  0  0  0  0999 V2000
   -0.1743    0.6547    0.7465 Br  0  0  0  0  0  0  0  0  0  0  0  0
    0.7490   -0.8316    0.0126 C   0  0  0  0  0  0  0  0  0  0  0  0
    0.3044   -2.1381   -0.0562 N   0  0  0  0  0  0  0  0  0  0  0  0
    2.0223   -0.8351   -0.5011 C   0  0  0  0  0  0  0  0  0  0  0  0
   -0.9763   -2.5636    0.3300 C   0  0  0  0  0  0  0  0  0  0  0  0
    1.3185   -2.8296   -0.6875 C   0  0  0  0  0  0  0  0  0  0  0  0
    3.2023    0.6292   -0.6478 Br  0  0  0  0  0  0  0  0  0  0  0  0
    2.3713   -2.0818   -0.9336 N   0  0  0  0  0  0  0  0  0  0  0  0
   -1.9031   -1.7773    0.1722 O   0  0  0  0  0  0  0  0  0  0  0  0
   -1.0615   -3.8706    0.8083 N   0  0  0  0  0  0  0  0  0  0  0  0
    1.2305   -4.6251   -1.3447 Br  0  0  0  0  0  0  0  0  0  0  0  0
   -0.1535   -4.4820    1.7791 C   0  0  0  0  0  0  0  0  0  0  0  0
   -2.2847   -4.6159    0.5498 C   0  0  0  0  0  0  0  0  0  0  0  0
  1  2  1  0  0  0  0 
  3  2  1  0  0  0  0 
  2  4  2  0  0  0  0 
  3  5  1  0  0  0  0 
  3  6  1  0  0  0  0 
  7  4  1  0  0  0  0 
  8  4  1  0  0  0  0 
  9  5  2  0  0  0  0 
 10  5  1  0  0  0  0 
 11  6  1  0  0  0  0 
  8  6  2  0  0  0  0 
 10 12  1  0  0  0  0 
 10 13  1  0  0  0  0 
M  END
> <Name>
1H-Imidazole-1-carboxamide, 2,4,5-tribromo-N,N-dimethyl- (9CI)

> <Source>
Chemidplus3DMolFile

> <Tox>
3.876

> <CAS>
94847-66-2

$$$$

  CDK

 18 19  0  0  0  0  0  0  0  0999 V2000
    3.6844   -2.5433    0.0000 C   0  0  0  0  0  0  0  0  0  0  0  0
    4.4096   -3.7037    0.0000 C   0  0  0  0  0  0  0  0  0  0  0  0
    4.4096   -1.3732    0.0000 C   0  0  0  0  0  0  0  0  0  0  0  0
    2.3112   -2.5433    0.0000 C   0  0  0  0  0  0  0  0  0  0  0  0
    5.7248   -3.7037    0.0000 C   0  0  0  0  0  0  0  0  0  0  0  0
    5.7248   -1.3732    0.0000 C   0  0  0  0  0  0  0  0  0  0  0  0
    1.6246   -1.3442    0.0000 O   0  0  0  0  0  0  0  0  0  0  0  0
    1.6246   -3.7037    0.0000 O   0  0  0  0  0  0  0  0  0  0  0  0
    6.4597   -2.5433    0.0000 C   0  0  0  0  0  0  0  0  0  0  0  0
    6.3920   -4.8835    0.0000 O   0  0  0  0  0  0  0  0  0  0  0  0
    6.3920   -0.1837    0.0000 O   0  0  0  0  0  0  0  0  0  0  0  0
    0.5415   -3.7037    0.0000 C   0  0  0  0  0  0  0  0  0  0  0  0
    7.8135   -2.5433    0.0000 C   0  0  0  0  0  0  0  0  0  0  0  0
    0.0000   -4.6417    0.0000 C   0  0  0  0  0  0  0  0  0  0  0  0
    8.4904   -1.3442    0.0000 C   0  0  0  0  0  0  0  0  0  0  0  0
    8.4904   -3.7230    0.0000 O   0  0  0  0  0  0  0  0  0  0  0  0
    9.6702   -0.6672    0.0000 C   0  0  0  0  0  0  0  0  0  0  0  0
    8.4904   -0.0000    0.0000 C   0  0  0  0  0  0  0  0  0  0  0  0
  1  2  1  0  0  0  0 
  1  3  1  0  0  0  0 
  1  4  1  0  0  0  0 
  2  5  1  0  0  0  0 
  6  3  1  0  0  0  0 
  4  7  2  0  0  0  0 
  4  8  1  0  0  0  0 
  5  9  1  0  0  0  0 
  5 10  2  0  0  0  0 
  9  6  1  0  0  0  0 
  6 11  2  0  0  0  0 
  8 12  1  0  0  0  0 
  9 13  2  0  0  0  0 
 12 14  1  0  0  0  0 
 13 15  1  0  0  0  0 
 13 16  1  0  0  0  0 
 15 17  1  0  0  0  0 
 15 18  1  0  0  0  0 
 17 18  1  0  0  0  0 
M  END
> <Name>
Cyclohexanecarboxylic acid, 4-(cyclopropylhydroxymethylene)-3,5-dioxo-, ethyl ester

> <Source>
DSSTox2DMolFile

> <Tox>
1.753

> <CAS>
95266-40-3

$$$$

  CDK

 24 25  0  0  0  0  0  0  0  0999 V2000
    3.3396   -3.6331    0.0000 N   0  0  0  0  0  0  0  0  0  0  0  0
    2.6549   -2.4873    0.0000 N   0  0  0  0  0  0  0  0  0  0  0  0
    4.6671   -3.6331    0.0000 C   0  0  0  0  0  0  0  0  0  0  0  0
    3.3396   -1.3275    0.0000 C   0  0  0  0  0  0  0  0  0  0  0  0
    1.3275   -2.4873    0.0000 C   0  0  0  0  0  0  0  0  0  0  0  0
    5.3238   -2.4873    0.0000 C   0  0  0  0  0  0  0  0  0  0  0  0
    4.6671   -1.3275    0.0000 C   0  0  0  0  0  0  0  0  0  0  0  0
    2.6549   -0.1817    0.0000 O   0  0  0  0  0  0  0  0  0  0  0  0
    1.3275   -3.8147    0.0000 C   0  0  0  0  0  0  0  0  0  0  0  0
    1.3275   -1.1598    0.0000 C   0  0  0  0  0  0  0  0  0  0  0  0
    0.0000   -2.4873    0.0000 C   0  0  0  0  0  0  0  0  0  0  0  0
    6.6513   -2.4873    0.0000 S   0  0  0  0  0  0  0  0  0  0  0  0
    5.3238   -0.1817    0.0000 Cl  0  0  0  0  0  0  0  0  0  0  0  0
    7.3220   -1.3275    0.0000 C   0  0  0  0  0  0  0  0  0  0  0  0
    8.6495   -1.3275    0.0000 C   0  0  0  0  0  0  0  0  0  0  0  0
    9.3062   -0.1817    0.0000 C   0  0  0  0  0  0  0  0  0  0  0  0
    9.3062   -2.4873    0.0000 C   0  0  0  0  0  0  0  0  0  0  0  0
   10.6337   -0.1817    0.0000 C   0  0  0  0  0  0  0  0  0  0  0  0
   10.6337   -2.4873    0.0000 C   0  0  0  0  0  0  0  0  0  0  0  0
   11.3184   -1.3275    0.0000 C   0  0  0  0  0  0  0  0  0  0  0  0
   12.6459   -1.3275    0.0000 C   0  0  0  0  0  0  0  0  0  0  0  0
   12.6459   -0.0000    0.0000 C   0  0  0  0  0  0  0  0  0  0  0  0
   12.6459   -2.6549    0.0000 C   0  0  0  0  0  0  0  0  0  0  0  0
   13.9733   -1.3275    0.0000 C   0  0  0  0  0  0  0  0  0  0  0  0
  1  2  1  0  0  0  0 
  1  3  2  0  0  0  0 
  2  4  1  0  0  0  0 
  2  5  1  0  0  0  0 
  3  6  1  0  0  0  0 
  4  7  1  0  0  0  0 
  4  8  2  0  0  0  0 
  5  9  1  0  0  0  0 
  5 10  1  0  0  0  0 
  5 11  1  0  0  0  0 
  7  6  2  0  0  0  0 
  6 12  1  0  0  0  0 
  7 13  1  0  0  0  0 
 12 14  1  0  0  0  0 
 14 15  1  0  0  0  0 
 15 16  2  0  0  0  0 
 15 17  1  0  0  0  0 
 16 18  1  0  0  0  0 
 17 19  2  0  0  0  0 
 18 20  2  0  0  0  0 
 19 20  1  0  0  0  0 
 20 21  1  0  0  0  0 
 21 22  1  0  0  0  0 
 21 23  1  0  0  0  0 
 21 24  1  0  0  0  0 
M  END
> <Name>
3(2H)-Pyridazinone, 4-chloro-2-(1,1-dimethylethyl)-5-(((4-(1,1-dimethylethyl)phenyl)methyl)thio)-

> <Source>
DSSTox2DMolFile

> <Tox>
2.806

> <CAS>
96489-71-3

$$$$

  CDK

 29 32  0  0  0  0  0  0  0  0999 V2000
    7.9531    1.2124    0.0000 O   0  0  0  0  0  0  0  0  0  0  0  0
    7.2531    2.4249    0.0000 C   0  0  0  0  0  0  0  0  0  0  0  0
    9.3531    1.2124    0.0000 C   0  0  0  0  0  0  0  0  0  0  0  0
    5.8531    2.4249    0.0000 C   0  0  0  0  0  0  0  0  0  0  0  0
    7.9531    3.6373    0.0000 C   0  0  0  0  0  0  0  0  0  0  0  0
   10.0531    2.4249    0.0000 C   0  0  0  0  0  0  0  0  0  0  0  0
   10.0531    0.0000    0.0000 C   0  0  0  0  0  0  0  0  0  0  0  0
    5.1531    3.6373    0.0000 C   0  0  0  0  0  0  0  0  0  0  0  0
    7.2531    4.8497    0.0000 C   0  0  0  0  0  0  0  0  0  0  0  0
   11.4531    2.4249    0.0000 C   0  0  0  0  0  0  0  0  0  0  0  0
   11.4531    0.0000    0.0000 C   0  0  0  0  0  0  0  0  0  0  0  0
    3.7836    3.9284    0.0000 N   0  0  0  0  0  0  0  0  0  0  0  0
    5.8531    4.8497    0.0000 C   0  0  0  0  0  0  0  0  0  0  0  0
   12.3898    3.4653    0.0000 N   0  0  0  0  0  0  0  0  0  0  0  0
   12.1531    1.2124    0.0000 C   0  0  0  0  0  0  0  0  0  0  0  0
    3.6373    5.3207    0.0000 C   0  0  0  0  0  0  0  0  0  0  0  0
    4.9163    5.8901    0.0000 N   0  0  0  0  0  0  0  0  0  0  0  0
   13.6688    2.8958    0.0000 C   0  0  0  0  0  0  0  0  0  0  0  0
   13.5225    1.5035    0.0000 N   0  0  0  0  0  0  0  0  0  0  0  0
    2.4249    6.0207    0.0000 N   0  0  0  0  0  0  0  0  0  0  0  0
   14.8812    3.5958    0.0000 N   0  0  0  0  0  0  0  0  0  0  0  0
    2.4249    7.4207    0.0000 C   0  0  0  0  0  0  0  0  0  0  0  0
   16.0937    2.8958    0.0000 C   0  0  0  0  0  0  0  0  0  0  0  0
    3.6373    8.1207    0.0000 O   0  0  0  0  0  0  0  0  0  0  0  0
    1.2124    8.1207    0.0000 O   0  0  0  0  0  0  0  0  0  0  0  0
   16.0937    1.4958    0.0000 O   0  0  0  0  0  0  0  0  0  0  0  0
   17.3061    3.5958    0.0000 O   0  0  0  0  0  0  0  0  0  0  0  0
    0.0000    7.4207    0.0000 C   0  0  0  0  0  0  0  0  0  0  0  0
   17.3061    4.9958    0.0000 C   0  0  0  0  0  0  0  0  0  0  0  0
  1  2  1  0  0  0  0 
  1  3  1  0  0  0  0 
  4  2  1  0  0  0  0 
  2  5  2  0  0  0  0 
  6  3  1  0  0  0  0 
  3  7  2  0  0  0  0 
  8  4  2  0  0  0  0 
  5  9  1  0  0  0  0 
 10  6  2  0  0  0  0 
  7 11  1  0  0  0  0 
 12  8  1  0  0  0  0 
  8 13  1  0  0  0  0 
 13  9  2  0  0  0  0 
 14 10  1  0  0  0  0 
 10 15  1  0  0  0  0 
 15 11  2  0  0  0  0 
 16 12  2  0  0  0  0 
 13 17  1  0  0  0  0 
 18 14  2  0  0  0  0 
 15 19  1  0  0  0  0 
 16 17  1  0  0  0  0 
 16 20  1  0  0  0  0 
 18 19  1  0  0  0  0 
 18 21  1  0  0  0  0 
 22 20  1  0  0  0  0 
 23 21  1  0  0  0  0 
 22 24  2  0  0  0  0 
 22 25  1  0  0  0  0 
 23 26  2  0  0  0  0 
 23 27  1  0  0  0  0 
 25 28  1  0  0  0  0 
 27 29  1  0  0  0  0 
M  END
> <Name>
Carbamic acid, (oxybis(1H-benzimidazole-5,2-diyl))bis-, dimethyl ester

> <Source>
Name2DMolFile

> <Tox>
3.297

> <CAS>
96753-93-4

$$$$

  CDK

 24 26  0  0  0  0  0  0  0  0999 V2000
    6.7353    3.6373    0.0000 C   0  0  0  0  0  0  0  0  0  0  0  0
    7.4353    2.4249    0.0000 C   0  0  0  0  0  0  0  0  0  0  0  0
    7.4353    4.8497    0.0000 O   0  0  0  0  0  0  0  0  0  0  0  0
    5.3353    3.6373    0.0000 N   0  0  0  0  0  0  0  0  0  0  0  0
    6.7353    1.2124    0.0000 C   0  0  0  0  0  0  0  0  0  0  0  0
    8.8353    2.4249    0.0000 C   0  0  0  0  0  0  0  0  0  0  0  0
    4.6353    4.8497    0.0000 C   0  0  0  0  0  0  0  0  0  0  0  0
    5.3353    1.2124    0.0000 O   0  0  0  0  0  0  0  0  0  0  0  0
    7.4353    0.0000    0.0000 C   0  0  0  0  0  0  0  0  0  0  0  0
    9.5353    1.2124    0.0000 C   0  0  0  0  0  0  0  0  0  0  0  0
    5.2047    6.1287    0.0000 C   0  0  0  0  0  0  0  0  0  0  0  0
    3.2430    4.9961    0.0000 N   0  0  0  0  0  0  0  0  0  0  0  0
    8.8353    0.0000    0.0000 C   0  0  0  0  0  0  0  0  0  0  0  0
    4.1643    7.0655    0.0000 C   0  0  0  0  0  0  0  0  0  0  0  0
    2.9519    6.3655    0.0000 N   0  0  0  0  0  0  0  0  0  0  0  0
    2.3062    3.9557    0.0000 C   0  0  0  0  0  0  0  0  0  0  0  0
    4.3107    8.4578    0.0000 C   0  0  0  0  0  0  0  0  0  0  0  0
    1.6729    6.9349    0.0000 C   0  0  0  0  0  0  0  0  0  0  0  0
    2.7388    2.6242    0.0000 C   0  0  0  0  0  0  0  0  0  0  0  0
    0.9368    4.2468    0.0000 C   0  0  0  0  0  0  0  0  0  0  0  0
    1.5266    8.3273    0.0000 C   0  0  0  0  0  0  0  0  0  0  0  0
    1.8020    1.5838    0.0000 C   0  0  0  0  0  0  0  0  0  0  0  0
    0.0000    3.2064    0.0000 C   0  0  0  0  0  0  0  0  0  0  0  0
    0.4326    1.8749    0.0000 C   0  0  0  0  0  0  0  0  0  0  0  0
  1  2  1  0  0  0  0 
  1  3  2  0  0  0  0 
  1  4  1  0  0  0  0 
  2  5  1  0  0  0  0 
  2  6  2  0  0  0  0 
  4  7  2  0  0  0  0 
  5  8  1  0  0  0  0 
  5  9  2  0  0  0  0 
 10  6  1  0  0  0  0 
 11  7  1  0  0  0  0 
 12  7  1  0  0  0  0 
  9 13  1  0  0  0  0 
 13 10  2  0  0  0  0 
 14 11  2  0  0  0  0 
 12 15  1  0  0  0  0 
 12 16  1  0  0  0  0 
 15 14  1  0  0  0  0 
 14 17  1  0  0  0  0 
 15 18  1  0  0  0  0 
 16 19  1  0  0  0  0 
 16 20  2  0  0  0  0 
 18 21  1  0  0  0  0 
 19 22  2  0  0  0  0 
 23 20  1  0  0  0  0 
 22 24  1  0  0  0  0 
 24 23  2  0  0  0  0 
M  END
> <Name>
Salicylamide, N-(2-ethyl-3-methyl-1-phenyl-3-pyrazolin-5-ylidene)-

> <Source>
Name2DMolFile

> <Tox>
2.415

> <CAS>
96935-35-2

$$$$

  CDK

 25 27  0  0  0  0  0  0  0  0999 V2000
    2.4156    6.2888    0.0000 C   0  0  0  0  0  0  0  0  0  0  0  0
    3.6233    5.5808    0.0000 C   0  0  0  0  0  0  0  0  0  0  0  0
    3.6233    4.2064    0.0000 N   0  0  0  0  0  0  0  0  0  0  0  0
    2.4156    3.4984    0.0000 C   0  0  0  0  0  0  0  0  0  0  0  0
    4.8311    3.4984    0.0000 C   0  0  0  0  0  0  0  0  0  0  0  0
    2.4156    2.0824    0.0000 C   0  0  0  0  0  0  0  0  0  0  0  0
    6.0389    4.2064    0.0000 C   0  0  0  0  0  0  0  0  0  0  0  0
    4.8311    2.0824    0.0000 C   0  0  0  0  0  0  0  0  0  0  0  0
    1.2078    1.3744    0.0000 C   0  0  0  0  0  0  0  0  0  0  0  0
    3.6233    1.3744    0.0000 C   0  0  0  0  0  0  0  0  0  0  0  0
    7.2467    3.4984    0.0000 C   0  0  0  0  0  0  0  0  0  0  0  0
    6.0389    5.5808    0.0000 F   0  0  0  0  0  0  0  0  0  0  0  0
    6.0389    1.3744    0.0000 C   0  0  0  0  0  0  0  0  0  0  0  0
    1.2078    0.0000    0.0000 O   0  0  0  0  0  0  0  0  0  0  0  0
    0.0000    2.0824    0.0000 O   0  0  0  0  0  0  0  0  0  0  0  0
    3.6233    0.0000    0.0000 O   0  0  0  0  0  0  0  0  0  0  0  0
    7.2467    2.0824    0.0000 C   0  0  0  0  0  0  0  0  0  0  0  0
    8.4544    4.2064    0.0000 N   0  0  0  0  0  0  0  0  0  0  0  0
    8.4544    1.3744    0.0000 F   0  0  0  0  0  0  0  0  0  0  0  0
    9.6622    3.4984    0.0000 C   0  0  0  0  0  0  0  0  0  0  0  0
    8.4544    5.5808    0.0000 C   0  0  0  0  0  0  0  0  0  0  0  0
   10.8700    4.2064    0.0000 C   0  0  0  0  0  0  0  0  0  0  0  0
    9.6622    6.2888    0.0000 C   0  0  0  0  0  0  0  0  0  0  0  0
   10.8700    5.5808    0.0000 N   0  0  0  0  0  0  0  0  0  0  0  0
    9.6622    7.6631    0.0000 C   0  0  0  0  0  0  0  0  0  0  0  0
  1  2  1  0  0  0  0 
  2  3  1  0  0  0  0 
  3  4  1  0  0  0  0 
  3  5  1  0  0  0  0 
  4  6  2  0  0  0  0 
  7  5  1  0  0  0  0 
  8  5  2  0  0  0  0 
  6  9  1  0  0  0  0 
  6 10  1  0  0  0  0 
 11  7  2  0  0  0  0 
  7 12  1  0  0  0  0 
 10  8  1  0  0  0  0 
  8 13  1  0  0  0  0 
  9 14  1  0  0  0  0 
  9 15  2  0  0  0  0 
 10 16  2  0  0  0  0 
 17 11  1  0  0  0  0 
 11 18  1  0  0  0  0 
 13 17  2  0  0  0  0 
 17 19  1  0  0  0  0 
 18 20  1  0  0  0  0 
 18 21  1  0  0  0  0 
 20 22  1  0  0  0  0 
 23 21  1  0  0  0  0 
 22 24  1  0  0  0  0 
 24 23  1  0  0  0  0 
 23 25  1  0  0  0  0 
M  END
> <Name>
3-Quinolinecarboxylic acid, 1-ethyl-6,8-difluoro-1,4-dihydro-7-(3-methyl-1-piperazinyl)-4-oxo-, (+-)-

> <Source>
IndexNet2DMolFile

> <Tox>
1.966

> <CAS>
98079-51-7

$$$$

  CDK

 33 37  0  0  0  0  0  0  0  0999 V2000
    1.0758    0.9158    0.0834 O   0  0  0  0  0  0  0  0  0  0  0  0
    0.6219    1.9765   -0.7844 C   0  0  0  0  0  0  0  0  0  0  0  0
    0.2401    0.8988    1.2523 C   0  0  0  0  0  0  0  0  0  0  0  0
    0.4237    1.4496   -2.1357 N   0  0  0  0  0  0  0  0  0  0  0  0
   -0.6449    2.5702   -0.1657 C   0  0  0  0  0  0  0  0  0  0  0  0
   -1.0853    1.4889    0.8030 C   0  0  0  0  0  0  0  0  0  0  0  0
    0.1232   -0.5200    1.7799 C   0  0  0  0  0  0  0  0  0  0  0  0
    0.6313    2.1111   -3.3138 C   0  0  0  0  0  0  0  0  0  0  0  0
   -0.0086    0.1886   -2.4558 C   0  0  0  0  0  0  0  0  0  0  0  0
   -0.3120    3.7751    0.5217 O   0  0  0  0  0  0  0  0  0  0  0  0
   -1.8434    1.9802    1.8875 O   0  0  0  0  0  0  0  0  0  0  0  0
    1.4120   -0.9712    2.1576 O   0  0  0  0  0  0  0  0  0  0  0  0
    1.0577    3.3724   -3.4786 N   0  0  0  0  0  0  0  0  0  0  0  0
    0.3069    1.1994   -4.3057 C   0  0  0  0  0  0  0  0  0  0  0  0
   -0.0901    0.0058   -3.7572 N   0  0  0  0  0  0  0  0  0  0  0  0
    1.1414    3.6747   -4.7925 C   0  0  0  0  0  0  0  0  0  0  0  0
    0.4339    1.6306   -5.6223 C   0  0  0  0  0  0  0  0  0  0  0  0
    0.8601    2.8938   -5.8636 N   0  0  0  0  0  0  0  0  0  0  0  0
    0.1249    0.7724   -6.6917 N   0  0  0  0  0  0  0  0  0  0  0  0
    0.2374    1.1636   -8.0655 C   0  0  0  0  0  0  0  0  0  0  0  0
   -1.0885    1.7857   -8.5578 C   0  0  0  0  0  0  0  0  0  0  0  0
   -2.2738    0.8334   -8.4410 C   0  0  0  0  0  0  0  0  0  0  0  0
   -0.9961    2.3857   -9.9567 C   0  0  0  0  0  0  0  0  0  0  0  0
   -2.5696    0.0076   -9.5044 C   0  0  0  0  0  0  0  0  0  0  0  0
   -3.0107    0.8301   -7.2761 C   0  0  0  0  0  0  0  0  0  0  0  0
   -1.8019    3.4583  -10.2739 C   0  0  0  0  0  0  0  0  0  0  0  0
   -0.1101    1.8356  -10.8581 C   0  0  0  0  0  0  0  0  0  0  0  0
   -3.6540   -0.8632   -9.3978 C   0  0  0  0  0  0  0  0  0  0  0  0
   -4.0951   -0.0408   -7.1693 C   0  0  0  0  0  0  0  0  0  0  0  0
   -1.7178    4.0069  -11.5536 C   0  0  0  0  0  0  0  0  0  0  0  0
   -0.0258    2.3842  -12.1378 C   0  0  0  0  0  0  0  0  0  0  0  0
   -4.4167   -0.8874   -8.2302 C   0  0  0  0  0  0  0  0  0  0  0  0
   -0.8297    3.4698  -12.4855 C   0  0  0  0  0  0  0  0  0  0  0  0
  1  2  1  0  0  0  0 
  1  3  1  0  0  0  0 
  4  2  1  0  0  0  0 
  5  2  1  0  0  0  0 
  6  3  1  0  0  0  0 
  3  7  1  0  0  0  0 
  4  8  1  0  0  0  0 
  4  9  1  0  0  0  0 
 10  5  1  0  0  0  0 
  5  6  1  0  0  0  0 
 11  6  1  0  0  0  0 
 12  7  1  0  0  0  0 
 13  8  2  0  0  0  0 
  8 14  1  0  0  0  0 
 15  9  2  0  0  0  0 
 13 16  1  0  0  0  0 
 15 14  1  0  0  0  0 
 14 17  2  0  0  0  0 
 18 16  2  0  0  0  0 
 19 17  1  0  0  0  0 
 18 17  1  0  0  0  0 
 19 20  1  0  0  0  0 
 21 20  1  0  0  0  0 
 21 22  1  0  0  0  0 
 21 23  1  0  0  0  0 
 22 24  2  0  0  0  0 
 22 25  1  0  0  0  0 
 23 26  2  0  0  0  0 
 23 27  1  0  0  0  0 
 24 28  1  0  0  0  0 
 25 29  2  0  0  0  0 
 26 30  1  0  0  0  0 
 27 31  2  0  0  0  0 
 28 32  2  0  0  0  0 
 29 32  1  0  0  0  0 
 30 33  2  0  0  0  0 
 31 33  1  0  0  0  0 
M  END
> <Name>
Adenosine, N-(2,2-diphenylethyl)-

> <Source>
Chemidplus3DMolFile

> <Tox>
3.431

> <CAS>
98383-40-5

$$$$

  CDK

  8  8  0  0  0  0  0  0  0  0999 V2000
    2.3705   -4.4277   -0.2909 O   0  0  0  0  0  0  0  0  0  0  0  0
    0.9710   -4.3287   -0.1007 C   0  0  0  0  0  0  0  0  0  0  0  0
    0.5526   -3.0246   -0.5555 N   0  0  0  0  0  0  0  0  0  0  0  0
    0.5363   -1.9914    0.3038 N   0  0  0  0  0  0  0  0  0  0  0  0
    0.1524   -2.6978   -1.8179 C   0  0  0  0  0  0  0  0  0  0  0  0
    0.1082   -0.9759   -0.4510 C   0  0  0  0  0  0  0  0  0  0  0  0
   -0.1469   -1.3578   -1.7818 C   0  0  0  0  0  0  0  0  0  0  0  0
   -0.0477    0.3625    0.1433 C   0  0  0  0  0  0  0  0  0  0  0  0
  1  2  1  0  0  0  0 
  3  2  1  0  0  0  0 
  3  4  1  0  0  0  0 
  3  5  1  0  0  0  0 
  4  6  2  0  0  0  0 
  5  7  2  0  0  0  0 
  6  7  1  0  0  0  0 
  6  8  1  0  0  0  0 
M  END
> <Name>
1H-Pyrazole-1-methanol, 3-methyl-

> <Source>
Chemidplus3DMolFile

> <Tox>
1.832

> <CAS>
98816-32-1

$$$$

  CDK

 19 20  0  0  0  0  0  0  0  0999 V2000
   -2.1886    5.7975   -4.1339 S   0  0  0  0  0  0  0  0  0  0  0  0
   -0.9230    5.2276   -2.7645 P   0  0  0  0  0  0  0  0  0  0  0  0
    0.5878    5.0657   -3.3494 O   0  0  0  0  0  0  0  0  0  0  0  0
   -1.2159    3.7129   -2.2485 O   0  0  0  0  0  0  0  0  0  0  0  0
   -0.8056    6.1602   -1.3940 N   0  0  0  0  0  0  0  0  0  0  0  0
    1.5936    4.4980   -2.5199 C   0  0  0  0  0  0  0  0  0  0  0  0
   -0.2305    2.9234   -1.7176 C   0  0  0  0  0  0  0  0  0  0  0  0
   -0.5411    7.5837   -1.5915 C   0  0  0  0  0  0  0  0  0  0  0  0
   -1.8549    5.9860   -0.3918 C   0  0  0  0  0  0  0  0  0  0  0  0
    1.1256    3.2476   -1.8315 C   0  0  0  0  0  0  0  0  0  0  0  0
   -0.6380    1.7562   -1.0697 C   0  0  0  0  0  0  0  0  0  0  0  0
    0.5470    7.8011   -2.6293 C   0  0  0  0  0  0  0  0  0  0  0  0
   -1.4458    6.5882    0.9417 C   0  0  0  0  0  0  0  0  0  0  0  0
    2.0708    2.3893   -1.2524 C   0  0  0  0  0  0  0  0  0  0  0  0
    0.3134    0.9071   -0.5083 C   0  0  0  0  0  0  0  0  0  0  0  0
    1.6671    1.2246   -0.5968 C   0  0  0  0  0  0  0  0  0  0  0  0
    2.6372    0.3625   -0.0206 N   0  0  0  0  0  0  0  0  0  0  0  0
    2.2539   -0.6798    0.5636 O   0  0  0  0  0  0  0  0  0  0  0  0
    3.8513    0.6662   -0.1116 O   0  0  0  0  0  0  0  0  0  0  0  0
  1  2  2  0  0  0  0 
  2  3  1  0  0  0  0 
  2  4  1  0  0  0  0 
  2  5  1  0  0  0  0 
  3  6  1  0  0  0  0 
  4  7  1  0  0  0  0 
  5  8  1  0  0  0  0 
  5  9  1  0  0  0  0 
 10  6  1  0  0  0  0 
 10  7  2  0  0  0  0 
  7 11  1  0  0  0  0 
  8 12  1  0  0  0  0 
  9 13  1  0  0  0  0 
 10 14  1  0  0  0  0 
 11 15  2  0  0  0  0 
 14 16  2  0  0  0  0 
 16 15  1  0  0  0  0 
 17 16  1  0  0  0  0 
 18 17  1  0  0  0  0 
 19 17  2  0  0  0  0 
M  CHG  1  17   1
M  CHG  1  18  -1
M  END
> <Name>
4H-1,3,2-Benzodioxaphosphorin-2-amine, N,N-diethyl-6-nitro-, 2-sulfide

> <Source>
Chemidplus3DMolFile

> <Tox>
3.304

> <CAS>
99300-57-9

$$$$

  CDK

 17 18  0  0  0  0  0  0  0  0999 V2000
    7.3597   -0.4720    1.0424 S   0  0  0  0  0  0  0  0  0  0  0  0
    5.8586   -1.2282    0.0543 P   0  0  0  0  0  0  0  0  0  0  0  0
    5.4351   -2.7004    0.6063 O   0  0  0  0  0  0  0  0  0  0  0  0
    4.4799   -0.4008    0.3011 O   0  0  0  0  0  0  0  0  0  0  0  0
    6.0173   -1.3677   -1.5934 N   0  0  0  0  0  0  0  0  0  0  0  0
    4.2573   -3.3145    0.0988 C   0  0  0  0  0  0  0  0  0  0  0  0
    3.2480   -0.9854    0.1702 C   0  0  0  0  0  0  0  0  0  0  0  0
    7.0257   -2.3088   -2.0766 C   0  0  0  0  0  0  0  0  0  0  0  0
    6.1006   -0.1209   -2.3510 C   0  0  0  0  0  0  0  0  0  0  0  0
    3.0876   -2.3724    0.0828 C   0  0  0  0  0  0  0  0  0  0  0  0
    2.1438   -0.1319    0.1495 C   0  0  0  0  0  0  0  0  0  0  0  0
    1.7923   -2.8896   -0.0581 C   0  0  0  0  0  0  0  0  0  0  0  0
    0.8614   -0.6611    0.0200 C   0  0  0  0  0  0  0  0  0  0  0  0
    0.6856   -2.0390   -0.0868 C   0  0  0  0  0  0  0  0  0  0  0  0
   -0.6203   -2.5790   -0.2241 N   0  0  0  0  0  0  0  0  0  0  0  0
   -1.5984   -1.7941   -0.2464 O   0  0  0  0  0  0  0  0  0  0  0  0
   -0.7516   -3.8228   -0.3192 O   0  0  0  0  0  0  0  0  0  0  0  0
  1  2  2  0  0  0  0 
  2  3  1  0  0  0  0 
  2  4  1  0  0  0  0 
  2  5  1  0  0  0  0 
  3  6  1  0  0  0  0 
  4  7  1  0  0  0  0 
  5  8  1  0  0  0  0 
  5  9  1  0  0  0  0 
 10  6  1  0  0  0  0 
 10  7  2  0  0  0  0 
  7 11  1  0  0  0  0 
 10 12  1  0  0  0  0 
 11 13  2  0  0  0  0 
 12 14  2  0  0  0  0 
 14 13  1  0  0  0  0 
 15 14  1  0  0  0  0 
 16 15  1  0  0  0  0 
 17 15  2  0  0  0  0 
M  CHG  1  15   1
M  CHG  1  16  -1
M  END
> <Name>
4H-1,3,2-Benzodioxaphosphorin-2-amine, N,N-dimethyl-6-nitro-, 2-sulfide

> <Source>
Chemidplus3DMolFile

> <Tox>
3.341

> <CAS>
99300-64-8

$$$$

  CDK

 24 25  0  0  0  0  0  0  0  0999 V2000
   -4.4184   -0.5605    0.7027 S   0  0  0  0  0  0  0  0  0  0  0  0
   -4.4306    1.2387    0.3646 C   0  0  0  0  0  0  0  0  0  0  0  0
   -2.6614   -0.6093    0.6087 C   0  0  0  0  0  0  0  0  0  0  0  0
   -3.0622    1.5500   -0.0767 N   0  0  0  0  0  0  0  0  0  0  0  0
   -4.9046    1.6891   -1.0284 C   0  0  0  0  0  0  0  0  0  0  0  0
   -2.1528    0.5518    0.1614 C   0  0  0  0  0  0  0  0  0  0  0  0
   -1.9603   -1.8820    0.9482 C   0  0  0  0  0  0  0  0  0  0  0  0
   -3.4177    2.0140   -1.3109 C   0  0  0  0  0  0  0  0  0  0  0  0
   -5.5134    0.6890   -1.9856 C   0  0  0  0  0  0  0  0  0  0  0  0
   -0.7434    0.7928   -0.1396 C   0  0  0  0  0  0  0  0  0  0  0  0
   -1.8761   -2.7109   -0.1992 O   0  0  0  0  0  0  0  0  0  0  0  0
   -2.7775    2.3921   -2.2661 O   0  0  0  0  0  0  0  0  0  0  0  0
   -5.3960    1.1801   -3.3201 O   0  0  0  0  0  0  0  0  0  0  0  0
   -6.9846    0.4505   -1.6691 C   0  0  0  0  0  0  0  0  0  0  0  0
   -0.4661    2.1028    0.0871 O   0  0  0  0  0  0  0  0  0  0  0  0
    0.0265   -0.0742   -0.5283 O   0  0  0  0  0  0  0  0  0  0  0  0
   -1.2520   -3.9191   -0.0294 C   0  0  0  0  0  0  0  0  0  0  0  0
    0.8878    2.5184   -0.1579 C   0  0  0  0  0  0  0  0  0  0  0  0
   -0.7740   -4.3172    1.0275 O   0  0  0  0  0  0  0  0  0  0  0  0
   -1.2317   -4.6297   -1.2040 N   0  0  0  0  0  0  0  0  0  0  0  0
    1.1253    3.9025    0.1475 O   0  0  0  0  0  0  0  0  0  0  0  0
    0.4006    4.8099   -0.5667 C   0  0  0  0  0  0  0  0  0  0  0  0
   -0.4248    4.5602   -1.4347 O   0  0  0  0  0  0  0  0  0  0  0  0
    0.7632    6.1960   -0.1279 C   0  0  0  0  0  0  0  0  0  0  0  0
  1  2  1  0  0  0  0 
  1  3  1  0  0  0  0 
  4  2  1  0  0  0  0 
  5  2  1  0  0  0  0 
  6  3  2  0  0  0  0 
  3  7  1  0  0  0  0 
  4  8  1  0  0  0  0 
  4  6  1  0  0  0  0 
  5  8  1  0  0  0  0 
  5  9  1  0  0  0  0 
  6 10  1  0  0  0  0 
 11  7  1  0  0  0  0 
 12  8  2  0  0  0  0 
 13  9  1  0  0  0  0 
  9 14  1  0  0  0  0 
 15 10  1  0  0  0  0 
 16 10  2  0  0  0  0 
 11 17  1  0  0  0  0 
 15 18  1  0  0  0  0 
 19 17  2  0  0  0  0 
 20 17  1  0  0  0  0 
 21 18  1  0  0  0  0 
 21 22  1  0  0  0  0 
 23 22  2  0  0  0  0 
 22 24  1  0  0  0  0 
M  END
> <Name>
4-Thia-1-azabicyclo(3.2.0)hept-2-ene-2-carboxylic acid, 3-(((aminocarbonyl)oxy)methyl)-6-(1-hydroxyethyl)-7-oxo-, (acetyloxy)methyl ester, (5R-(5-alpha,6-beta(R*)))-

> <Source>
Chemidplus3DMolFile

> <Tox>
1.698

> <CAS>
99376-22-4

$$$$

  CDK

 61 66  0  0  0  0  0  0  0  0999 V2000
   -3.3989    2.2971    2.1695 C   0  0  0  0  0  0  0  0  0  0  0  0
   -2.7905    1.3308    1.1512 C   0  0  0  0  0  0  0  0  0  0  0  0
   -2.6868    3.5325    2.1350 O   0  0  0  0  0  0  0  0  0  0  0  0
   -3.3076    1.6850    3.5692 C   0  0  0  0  0  0  0  0  0  0  0  0
   -2.7620    1.9718   -0.2599 C   0  0  0  0  0  0  0  0  0  0  0  0
   -1.3958    1.0958    1.4435 O   0  0  0  0  0  0  0  0  0  0  0  0
   -3.3906    4.4594    2.9596 C   0  0  0  0  0  0  0  0  0  0  0  0
   -3.9499    2.6451    4.5769 C   0  0  0  0  0  0  0  0  0  0  0  0
   -4.0496    0.3472    3.5922 C   0  0  0  0  0  0  0  0  0  0  0  0
   -1.6090    1.1975   -0.9446 C   0  0  0  0  0  0  0  0  0  0  0  0
   -0.7852    0.6354    0.2285 C   0  0  0  0  0  0  0  0  0  0  0  0
   -3.2987    4.0243    4.4239 C   0  0  0  0  0  0  0  0  0  0  0  0
   -4.7625    4.5024    2.5620 O   0  0  0  0  0  0  0  0  0  0  0  0
   -2.7732    5.8505    2.8026 C   0  0  0  0  0  0  0  0  0  0  0  0
   -2.1637    0.0595   -1.8036 C   0  0  0  0  0  0  0  0  0  0  0  0
   -0.7996   -0.7880    0.1865 O   0  0  0  0  0  0  0  0  0  0  0  0
    0.6486    1.1584    0.1414 C   0  0  0  0  0  0  0  0  0  0  0  0
   -4.0316    5.0372    5.3059 C   0  0  0  0  0  0  0  0  0  0  0  0
   -2.8654    6.2612    1.4370 O   0  0  0  0  0  0  0  0  0  0  0  0
   -0.1808   -1.2640    1.3803 C   0  0  0  0  0  0  0  0  0  0  0  0
    1.4508    0.6217    1.3326 C   0  0  0  0  0  0  0  0  0  0  0  0
    1.2890    0.6809   -1.1635 C   0  0  0  0  0  0  0  0  0  0  0  0
   -0.3356   -2.7839    1.4623 C   0  0  0  0  0  0  0  0  0  0  0  0
    1.3065   -0.9038    1.3729 C   0  0  0  0  0  0  0  0  0  0  0  0
   -1.8240   -3.1661    1.3435 C   0  0  0  0  0  0  0  0  0  0  0  0
    0.4634   -3.4491    0.3397 C   0  0  0  0  0  0  0  0  0  0  0  0
    0.1279   -3.2573    2.7390 O   0  0  0  0  0  0  0  0  0  0  0  0
   -2.1240   -3.9379    2.6526 C   0  0  0  0  0  0  0  0  0  0  0  0
   -2.6361   -1.9935    1.2571 O   0  0  0  0  0  0  0  0  0  0  0  0
   -0.7105   -4.3670    3.1049 C   0  0  0  0  0  0  0  0  0  0  0  0
   -3.8623   -2.3851    0.6365 C   0  0  0  0  0  0  0  0  0  0  0  0
   -0.3119   -5.5429    2.4176 O   0  0  0  0  0  0  0  0  0  0  0  0
   -0.6882   -4.5710    4.6154 C   0  0  0  0  0  0  0  0  0  0  0  0
   -4.8176   -1.1901    0.5986 C   0  0  0  0  0  0  0  0  0  0  0  0
   -3.5992   -2.8357   -0.6909 O   0  0  0  0  0  0  0  0  0  0  0  0
    1.0612   -5.7829    2.7234 C   0  0  0  0  0  0  0  0  0  0  0  0
    0.7352   -4.9421    5.0502 C   0  0  0  0  0  0  0  0  0  0  0  0
   -6.1414   -1.6289   -0.0376 C   0  0  0  0  0  0  0  0  0  0  0  0
   -4.8103   -3.3830   -1.2088 C   0  0  0  0  0  0  0  0  0  0  0  0
    1.5755   -6.9469    1.8740 C   0  0  0  0  0  0  0  0  0  0  0  0
    1.2090   -6.1309    4.2063 C   0  0  0  0  0  0  0  0  0  0  0  0
    1.6062   -3.8285    4.8422 O   0  0  0  0  0  0  0  0  0  0  0  0
   -5.8431   -2.2696   -1.3978 C   0  0  0  0  0  0  0  0  0  0  0  0
   -4.5308   -4.0516   -2.5563 C   0  0  0  0  0  0  0  0  0  0  0  0
    3.0039   -7.2488    2.2478 C   0  0  0  0  0  0  0  0  0  0  0  0
    1.5050   -6.5681    0.3934 C   0  0  0  0  0  0  0  0  0  0  0  0
    0.3576   -7.3601    4.5305 C   0  0  0  0  0  0  0  0  0  0  0  0
   -7.0450   -2.8197   -1.9411 O   0  0  0  0  0  0  0  0  0  0  0  0
    3.3588   -8.4923    2.5778 C   0  0  0  0  0  0  0  0  0  0  0  0
   -7.6575   -1.7878   -2.7171 C   0  0  0  0  0  0  0  0  0  0  0  0
    4.7047   -8.7586    3.0845 C   0  0  0  0  0  0  0  0  0  0  0  0
    2.3728   -9.6221    2.4283 C   0  0  0  0  0  0  0  0  0  0  0  0
    5.1055  -10.1627    3.4571 C   0  0  0  0  0  0  0  0  0  0  0  0
    5.4986   -7.8490    3.2049 O   0  0  0  0  0  0  0  0  0  0  0  0
    6.6251  -10.3048    3.3501 C   0  0  0  0  0  0  0  0  0  0  0  0
    4.6658  -10.4545    4.8933 C   0  0  0  0  0  0  0  0  0  0  0  0
    7.0488  -10.1625    1.8869 C   0  0  0  0  0  0  0  0  0  0  0  0
    8.5532  -10.1518    1.7983 C   0  0  0  0  0  0  0  0  0  0  0  0
    6.4988  -11.3402    1.0798 C   0  0  0  0  0  0  0  0  0  0  0  0
    9.1544  -10.0353    0.6038 O   0  0  0  0  0  0  0  0  0  0  0  0
    9.2182  -10.2481    2.8025 O   0  0  0  0  0  0  0  0  0  0  0  0
  2  1  1  0  0  0  0 
  1  3  1  0  0  0  0 
  1  4  1  0  0  0  0 
  5  2  1  0  0  0  0 
  2  6  1  0  0  0  0 
  3  7  1  0  0  0  0 
  8  4  1  0  0  0  0 
  4  9  1  0  0  0  0 
 10  5  1  0  0  0  0 
 11  6  1  0  0  0  0 
  7 12  1  0  0  0  0 
  7 13  1  0  0  0  0 
  7 14  1  0  0  0  0 
 12  8  1  0  0  0  0 
 11 10  1  0  0  0  0 
 10 15  1  0  0  0  0 
 11 16  1  0  0  0  0 
 11 17  1  0  0  0  0 
 12 18  1  0  0  0  0 
 14 19  1  0  0  0  0 
 20 16  1  0  0  0  0 
 17 21  1  0  0  0  0 
 17 22  1  0  0  0  0 
 23 20  1  0  0  0  0 
 20 24  1  0  0  0  0 
 21 24  1  0  0  0  0 
 25 23  1  0  0  0  0 
 23 26  1  0  0  0  0 
 23 27  1  0  0  0  0 
 28 25  1  0  0  0  0 
 25 29  1  0  0  0  0 
 30 27  1  0  0  0  0 
 30 28  1  0  0  0  0 
 29 31  1  0  0  0  0 
 30 32  1  0  0  0  0 
 30 33  1  0  0  0  0 
 31 34  1  0  0  0  0 
 31 35  1  0  0  0  0 
 36 32  1  0  0  0  0 
 33 37  1  0  0  0  0 
 34 38  1  0  0  0  0 
 39 35  1  0  0  0  0 
 36 40  1  0  0  0  0 
 36 41  1  0  0  0  0 
 37 42  1  0  0  0  0 
 37 41  1  0  0  0  0 
 38 43  1  0  0  0  0 
 43 39  1  0  0  0  0 
 39 44  1  0  0  0  0 
 45 40  1  0  0  0  0 
 40 46  1  0  0  0  0 
 41 47  1  0  0  0  0 
 43 48  1  0  0  0  0 
 49 45  2  0  0  0  0 
 48 50  1  0  0  0  0 
 51 49  1  0  0  0  0 
 49 52  1  0  0  0  0 
 53 51  1  0  0  0  0 
 51 54  2  0  0  0  0 
 55 53  1  0  0  0  0 
 53 56  1  0  0  0  0 
 57 55  1  0  0  0  0 
 58 57  1  0  0  0  0 
 57 59  1  0  0  0  0 
 60 58  1  0  0  0  0 
 58 61  2  0  0  0  0 
M  END
> <Name>
Dianemycin, 19-de((tetrahydro-5-methoxy-6-methyl-2H-pyran-2-yl)oxy)-15-((tetrahydro-5-methoxy-6-methyl-2H-pyran-2-yl)oxy)-, (15(2S,5S,6R))-

> <Source>
Chemidplus3DMolFile

> <Tox>
5.063

> <CAS>
100242-41-9

$$$$

  CDK

 21 23  0  0  0  0  0  0  0  0999 V2000
   -0.5152   -0.7869    6.6310 S   0  0  0  0  0  0  0  0  0  0  0  0
   -1.2157   -1.3219    5.4115 O   0  0  0  0  0  0  0  0  0  0  0  0
    0.6788   -2.0484    7.1511 C   0  0  0  0  0  0  0  0  0  0  0  0
    0.6602    0.4341    6.0609 C   0  0  0  0  0  0  0  0  0  0  0  0
   -0.0051   -3.2646    7.7051 C   0  0  0  0  0  0  0  0  0  0  0  0
    0.4130    1.3284    5.0568 N   0  0  0  0  0  0  0  0  0  0  0  0
    1.8676    0.5767    6.5599 N   0  0  0  0  0  0  0  0  0  0  0  0
   -0.2991   -3.3633    9.0614 C   0  0  0  0  0  0  0  0  0  0  0  0
   -0.3406   -4.2956    6.8328 C   0  0  0  0  0  0  0  0  0  0  0  0
    1.5357    2.0995    4.8972 C   0  0  0  0  0  0  0  0  0  0  0  0
    2.4289    1.6110    5.8467 C   0  0  0  0  0  0  0  0  0  0  0  0
    0.0361   -2.3240    9.9567 N   0  0  0  0  0  0  0  0  0  0  0  0
   -0.9353   -4.5045    9.5504 C   0  0  0  0  0  0  0  0  0  0  0  0
   -0.9766   -5.4366    7.3220 C   0  0  0  0  0  0  0  0  0  0  0  0
    1.8373    3.1504    4.0303 C   0  0  0  0  0  0  0  0  0  0  0  0
    3.7033    2.1933    5.9515 C   0  0  0  0  0  0  0  0  0  0  0  0
   -0.8968   -1.2446   10.2077 C   0  0  0  0  0  0  0  0  0  0  0  0
    1.3220   -2.3183   10.6234 C   0  0  0  0  0  0  0  0  0  0  0  0
   -1.2739   -5.5411    8.6807 C   0  0  0  0  0  0  0  0  0  0  0  0
    3.1101    3.7183    4.1485 C   0  0  0  0  0  0  0  0  0  0  0  0
    4.0281    3.2498    5.0913 C   0  0  0  0  0  0  0  0  0  0  0  0
  1  2  2  0  0  0  0 
  1  3  1  0  0  0  0 
  1  4  1  0  0  0  0 
  5  3  1  0  0  0  0 
  6  4  1  0  0  0  0 
  7  4  2  0  0  0  0 
  5  8  1  0  0  0  0 
  5  9  2  0  0  0  0 
  6 10  1  0  0  0  0 
  7 11  1  0  0  0  0 
 12  8  1  0  0  0  0 
  8 13  2  0  0  0  0 
  9 14  1  0  0  0  0 
 10 11  1  0  0  0  0 
 10 15  2  0  0  0  0 
 11 16  2  0  0  0  0 
 12 17  1  0  0  0  0 
 12 18  1  0  0  0  0 
 13 19  1  0  0  0  0 
 14 19  2  0  0  0  0 
 15 20  1  0  0  0  0 
 16 21  1  0  0  0  0 
 20 21  2  0  0  0  0 
M  END
> <Name>
Benzenamine, 2-((1H-benzimidazol-2-ylsulfinyl)methyl)-N,N-dimethyl-

> <Source>
Chemidplus3DMolFile

> <Tox>
2.362

> <CAS>
100924-68-3

$$$$

  CDK

 30 29  0  0  0  0  0  0  0  0999 V2000
   -0.0289    1.4303    0.0839 C   0  0  0  0  0  0  0  0  0  0  0  0
    0.2128    0.0244    0.4334 C   0  0  0  0  0  0  0  0  0  0  0  0
    0.9982    2.2522   -0.1154 C   0  0  0  0  0  0  0  0  0  0  0  0
   -1.4401    1.9403   -0.0550 C   0  0  0  0  0  0  0  0  0  0  0  0
   -0.7872   -0.7759    0.6274 N   0  0  0  0  0  0  0  0  0  0  0  0
    0.7549    3.7239   -0.3299 C   0  0  0  0  0  0  0  0  0  0  0  0
   -1.9652    2.3679    1.3170 C   0  0  0  0  0  0  0  0  0  0  0  0
   -0.5462   -2.1782    0.9760 C   0  0  0  0  0  0  0  0  0  0  0  0
    1.5910    4.5296    0.6664 C   0  0  0  0  0  0  0  0  0  0  0  0
   -1.0690   -2.4499    2.3880 C   0  0  0  0  0  0  0  0  0  0  0  0
    1.3440    6.0237    0.4487 C   0  0  0  0  0  0  0  0  0  0  0  0
   -0.8172   -3.9145    2.7521 C   0  0  0  0  0  0  0  0  0  0  0  0
   -1.3400   -4.1861    4.1641 C   0  0  0  0  0  0  0  0  0  0  0  0
   -1.0883   -5.6507    4.5281 C   0  0  0  0  0  0  0  0  0  0  0  0
   -1.6111   -5.9224    5.9402 C   0  0  0  0  0  0  0  0  0  0  0  0
   -1.3593   -7.3870    6.3042 C   0  0  0  0  0  0  0  0  0  0  0  0
   -1.8821   -7.6586    7.7162 C   0  0  0  0  0  0  0  0  0  0  0  0
   -1.6304   -9.1232    8.0803 C   0  0  0  0  0  0  0  0  0  0  0  0
   -2.1532   -9.3949    9.4923 C   0  0  0  0  0  0  0  0  0  0  0  0
   -1.9014  -10.8594    9.8563 C   0  0  0  0  0  0  0  0  0  0  0  0
   -2.4242  -11.1311   11.2683 C   0  0  0  0  0  0  0  0  0  0  0  0
   -2.1724  -12.5957   11.6324 C   0  0  0  0  0  0  0  0  0  0  0  0
   -2.6952  -12.8674   13.0444 C   0  0  0  0  0  0  0  0  0  0  0  0
   -2.4435  -14.3319   13.4084 C   0  0  0  0  0  0  0  0  0  0  0  0
   -2.9663  -14.6036   14.8205 C   0  0  0  0  0  0  0  0  0  0  0  0
   -2.7145  -16.0682   15.1845 C   0  0  0  0  0  0  0  0  0  0  0  0
   -3.2373  -16.3398   16.5965 C   0  0  0  0  0  0  0  0  0  0  0  0
   -2.9856  -17.8044   16.9606 C   0  0  0  0  0  0  0  0  0  0  0  0
   -3.5084  -18.0761   18.3726 C   0  0  0  0  0  0  0  0  0  0  0  0
   -3.2566  -19.5407   18.7366 C   0  0  0  0  0  0  0  0  0  0  0  0
  1  2  1  0  0  0  0 
  1  3  2  0  0  0  0 
  1  4  1  0  0  0  0 
  2  5  2  0  0  0  0 
  3  6  1  0  0  0  0 
  4  7  1  0  0  0  0 
  5  8  1  0  0  0  0 
  6  9  1  0  0  0  0 
  8 10  1  0  0  0  0 
  9 11  1  0  0  0  0 
 10 12  1  0  0  0  0 
 12 13  1  0  0  0  0 
 13 14  1  0  0  0  0 
 14 15  1  0  0  0  0 
 15 16  1  0  0  0  0 
 16 17  1  0  0  0  0 
 17 18  1  0  0  0  0 
 18 19  1  0  0  0  0 
 19 20  1  0  0  0  0 
 20 21  1  0  0  0  0 
 21 22  1  0  0  0  0 
 22 23  1  0  0  0  0 
 23 24  1  0  0  0  0 
 24 25  1  0  0  0  0 
 25 26  1  0  0  0  0 
 26 27  1  0  0  0  0 
 27 28  1  0  0  0  0 
 28 29  1  0  0  0  0 
 29 30  1  0  0  0  0 
M  END
> <Name>
1-Heneicosanamine, N-(2-ethyl-2-hexenylidene)-

> <Source>
Chemidplus3DMolFile

> <Tox>
1.897

> <CAS>
101023-74-9

$$$$

  CDK

 15 15  0  0  0  0  0  0  0  0999 V2000
    1.2124    2.1000    0.0000 C   0  0  0  0  0  0  0  0  0  0  0  0
    2.4249    2.8000    0.0000 N   0  0  0  0  0  0  0  0  0  0  0  0
    1.2124    0.7000    0.0000 N   0  0  0  0  0  0  0  0  0  0  0  0
    0.0000    2.8000    0.0000 N   0  0  0  0  0  0  0  0  0  0  0  0
    3.6373    2.1000    0.0000 C   0  0  0  0  0  0  0  0  0  0  0  0
    2.4249    0.0000    0.0000 C   0  0  0  0  0  0  0  0  0  0  0  0
    3.6373    0.7000    0.0000 C   0  0  0  0  0  0  0  0  0  0  0  0
    4.8497    2.8000    0.0000 O   0  0  0  0  0  0  0  0  0  0  0  0
    6.0622    2.1000    0.0000 C   0  0  0  0  0  0  0  0  0  0  0  0
    7.2746    2.8000    0.0000 C   0  0  0  0  0  0  0  0  0  0  0  0
    8.4870    2.1000    0.0000 N   0  0  0  0  0  0  0  0  0  0  0  0
    8.4870    0.7000    0.0000 C   0  0  0  0  0  0  0  0  0  0  0  0
    9.6995    2.8000    0.0000 C   0  0  0  0  0  0  0  0  0  0  0  0
    9.6995    0.0000    0.0000 C   0  0  0  0  0  0  0  0  0  0  0  0
    9.6995    4.2000    0.0000 C   0  0  0  0  0  0  0  0  0  0  0  0
  1  2  1  0  0  0  0 
  1  3  2  0  0  0  0 
  1  4  1  0  0  0  0 
  2  5  2  0  0  0  0 
  6  3  1  0  0  0  0 
  5  7  1  0  0  0  0 
  5  8  1  0  0  0  0 
  7  6  2  0  0  0  0 
  8  9  1  0  0  0  0 
  9 10  1  0  0  0  0 
 10 11  1  0  0  0  0 
 11 12  1  0  0  0  0 
 11 13  1  0  0  0  0 
 12 14  1  0  0  0  0 
 13 15  1  0  0  0  0 
M  END
> <Name>
Pyrimidine, 2-amino-4-(2-diethylaminoethoxy)-

> <Source>
Name2DMolFile

> <Tox>
2.022

> <CAS>
102207-75-0

$$$$

  CDK

 14 14  0  0  0  0  0  0  0  0999 V2000
    3.9868   -4.6114    0.0000 N   0  0  0  0  0  0  0  0  0  0  0  0
    2.6579   -4.6114    0.0000 C   0  0  0  0  0  0  0  0  0  0  0  0
    4.6446   -3.4552    0.0000 C   0  0  0  0  0  0  0  0  0  0  0  0
    1.9868   -3.4552    0.0000 C   0  0  0  0  0  0  0  0  0  0  0  0
    3.9868   -2.3057    0.0000 C   0  0  0  0  0  0  0  0  0  0  0  0
    5.9735   -3.4552    0.0000 C   0  0  0  0  0  0  0  0  0  0  0  0
    2.6579   -2.3057    0.0000 C   0  0  0  0  0  0  0  0  0  0  0  0
    0.6578   -3.4552    0.0000 C   0  0  0  0  0  0  0  0  0  0  0  0
    4.6446   -1.1562    0.0000 C   0  0  0  0  0  0  0  0  0  0  0  0
    6.6447   -4.6114    0.0000 O   0  0  0  0  0  0  0  0  0  0  0  0
    6.6447   -2.3057    0.0000 O   0  0  0  0  0  0  0  0  0  0  0  0
    0.0000   -4.6114    0.0000 C   0  0  0  0  0  0  0  0  0  0  0  0
    5.9735   -1.1562    0.0000 O   0  0  0  0  0  0  0  0  0  0  0  0
    3.9868   -0.0000    0.0000 O   0  0  0  0  0  0  0  0  0  0  0  0
  1  2  2  0  0  0  0 
  1  3  1  0  0  0  0 
  2  4  1  0  0  0  0 
  3  5  2  0  0  0  0 
  3  6  1  0  0  0  0 
  4  7  2  0  0  0  0 
  4  8  1  0  0  0  0 
  5  7  1  0  0  0  0 
  5  9  1  0  0  0  0 
  6 10  2  0  0  0  0 
  6 11  1  0  0  0  0 
  8 12  1  0  0  0  0 
  9 13  2  0  0  0  0 
  9 14  1  0  0  0  0 
M  END
> <Name>
2,3-Pyridinedicarboxylic acid, 5-ethyl-

> <Source>
DSSTox2DMolFile

> <Tox>
1.765

> <CAS>
102268-15-5

$$$$

  CDK

 18 19  0  0  0  0  0  0  0  0999 V2000
    3.3322    1.6176    0.0000 C   0  0  0  0  0  0  0  0  0  0  0  0
    2.3422    0.6276    0.0000 C   0  0  0  0  0  0  0  0  0  0  0  0
    2.9698    2.9698    0.0000 O   0  0  0  0  0  0  0  0  0  0  0  0
    4.6845    1.2552    0.0000 N   0  0  0  0  0  0  0  0  0  0  0  0
    0.9899    0.9900    0.0000 N   0  0  0  0  0  0  0  0  0  0  0  0
    5.6744    2.2452    0.0000 N   0  0  0  0  0  0  0  0  0  0  0  0
    0.0000    0.0000    0.0000 C   0  0  0  0  0  0  0  0  0  0  0  0
    0.6276    2.3422    0.0000 C   0  0  0  0  0  0  0  0  0  0  0  0
    7.0267    1.8828    0.0000 C   0  0  0  0  0  0  0  0  0  0  0  0
    8.0167    2.8728    0.0000 C   0  0  0  0  0  0  0  0  0  0  0  0
    7.7977    4.2555    0.0000 C   0  0  0  0  0  0  0  0  0  0  0  0
    9.3994    2.6538    0.0000 N   0  0  0  0  0  0  0  0  0  0  0  0
    9.0451    4.8911    0.0000 N   0  0  0  0  0  0  0  0  0  0  0  0
    6.5503    4.8911    0.0000 Cl  0  0  0  0  0  0  0  0  0  0  0  0
   10.0350    3.9012    0.0000 C   0  0  0  0  0  0  0  0  0  0  0  0
   10.3894    1.6638    0.0000 C   0  0  0  0  0  0  0  0  0  0  0  0
   11.4178    3.6822    0.0000 S   0  0  0  0  0  0  0  0  0  0  0  0
   11.6368    2.2994    0.0000 C   0  0  0  0  0  0  0  0  0  0  0  0
  1  2  1  0  0  0  0 
  1  3  2  0  0  0  0 
  1  4  1  0  0  0  0 
  5  2  1  0  0  0  0 
  4  6  1  0  0  0  0 
  5  7  1  0  0  0  0 
  5  8  1  0  0  0  0 
  6  9  2  0  0  0  0 
  9 10  1  0  0  0  0 
 11 10  2  0  0  0  0 
 12 10  1  0  0  0  0 
 13 11  1  0  0  0  0 
 11 14  1  0  0  0  0 
 15 12  1  0  0  0  0 
 12 16  1  0  0  0  0 
 15 13  2  0  0  0  0 
 17 15  1  0  0  0  0 
 16 18  2  0  0  0  0 
 17 18  1  0  0  0  0 
M  END
> <Name>
Glycine, N,N-dimethyl-, ((6-chloroimidazo(2,1-b)thiazol-5-yl)methylene)hydrazide

> <Source>
Name2DMolFile

> <Tox>
2.280

> <CAS>
102410-20-8

$$$$

  CDK

 23 25  0  0  0  0  0  0  0  0999 V2000
    0.1105    0.2044    0.1516 O   0  0  0  0  0  0  0  0  0  0  0  0
   -0.3476   -0.8440   -0.5889 C   0  0  0  0  0  0  0  0  0  0  0  0
   -0.8278    0.8503    1.0094 C   0  0  0  0  0  0  0  0  0  0  0  0
   -0.2724   -2.1355   -0.0651 C   0  0  0  0  0  0  0  0  0  0  0  0
   -0.8777   -0.6323   -1.8618 C   0  0  0  0  0  0  0  0  0  0  0  0
   -0.7213   -3.2264   -0.8165 C   0  0  0  0  0  0  0  0  0  0  0  0
   -0.9668    0.6281   -2.3721 O   0  0  0  0  0  0  0  0  0  0  0  0
   -1.3259   -1.7114   -2.6226 C   0  0  0  0  0  0  0  0  0  0  0  0
   -1.2428   -3.0063   -2.1007 C   0  0  0  0  0  0  0  0  0  0  0  0
   -0.7273   -4.6175   -0.2506 C   0  0  0  0  0  0  0  0  0  0  0  0
    0.1510    1.1053   -3.1180 C   0  0  0  0  0  0  0  0  0  0  0  0
   -1.6381   -4.1831   -2.9213 C   0  0  0  0  0  0  0  0  0  0  0  0
   -2.1703   -5.0568   -0.1975 C   0  0  0  0  0  0  0  0  0  0  0  0
   -2.3231   -5.2097   -2.5062 N   0  0  0  0  0  0  0  0  0  0  0  0
   -1.1571   -4.2369   -4.3344 C   0  0  0  0  0  0  0  0  0  0  0  0
   -2.9154   -5.2318   -1.2450 N   0  0  0  0  0  0  0  0  0  0  0  0
   -2.8109   -5.1828    1.1612 C   0  0  0  0  0  0  0  0  0  0  0  0
    0.0509   -3.6396   -4.6704 C   0  0  0  0  0  0  0  0  0  0  0  0
   -1.9232   -4.8845   -5.2951 C   0  0  0  0  0  0  0  0  0  0  0  0
    0.5007   -3.6908   -5.9898 C   0  0  0  0  0  0  0  0  0  0  0  0
   -1.4733   -4.9357   -6.6145 C   0  0  0  0  0  0  0  0  0  0  0  0
   -0.2615   -4.3389   -6.9619 C   0  0  0  0  0  0  0  0  0  0  0  0
    0.1938   -4.3922   -8.2957 N   0  0  0  0  0  0  0  0  0  0  0  0
  1  2  1  0  0  0  0 
  1  3  1  0  0  0  0 
  4  2  1  0  0  0  0 
  2  5  2  0  0  0  0 
  6  4  2  0  0  0  0 
  7  5  1  0  0  0  0 
  8  5  1  0  0  0  0 
  6  9  1  0  0  0  0 
  6 10  1  0  0  0  0 
  7 11  1  0  0  0  0 
  9  8  2  0  0  0  0 
  9 12  1  0  0  0  0 
 10 13  1  0  0  0  0 
 14 12  2  0  0  0  0 
 12 15  1  0  0  0  0 
 16 13  2  0  0  0  0 
 13 17  1  0  0  0  0 
 14 16  1  0  0  0  0 
 15 18  2  0  0  0  0 
 15 19  1  0  0  0  0 
 18 20  1  0  0  0  0 
 19 21  2  0  0  0  0 
 20 22  2  0  0  0  0 
 21 22  1  0  0  0  0 
 23 22  1  0  0  0  0 
M  END
> <Name>
Benzenamine, 4-(7,8-dimethoxy-4-methyl-5H-2,3-benzodiazepin-1-yl)- (9CI)

> <Source>
Chemidplus3DMolFile

> <Tox>
3.383

> <CAS>
102771-12-0

$$$$

  CDK

 33 34  0  0  0  0  0  0  0  0999 V2000
    5.5036    0.0000    0.0000 C   0  0  0  0  0  0  0  0  0  0  0  0
    6.2032    1.2127    0.0000 C   0  0  0  0  0  0  0  0  0  0  0  0
    5.5036    2.4253    0.0000 O   0  0  0  0  0  0  0  0  0  0  0  0
    4.1044    2.4253    0.0000 C   0  0  0  0  0  0  0  0  0  0  0  0
    3.4981    1.1660    0.0000 O   0  0  0  0  0  0  0  0  0  0  0  0
    3.2182    3.4981    0.0000 C   0  0  0  0  0  0  0  0  0  0  0  0
    1.8656    3.1249    0.0000 C   0  0  0  0  0  0  0  0  0  0  0  0
    3.4514    4.8506    0.0000 C   0  0  0  0  0  0  0  0  0  0  0  0
    1.6324    1.6324    0.0000 C   0  0  0  0  0  0  0  0  0  0  0  0
    0.7929    3.9178    0.0000 N   0  0  0  0  0  0  0  0  0  0  0  0
    2.3787    5.7835    0.0000 C   0  0  0  0  0  0  0  0  0  0  0  0
    5.1305    5.5036    0.0000 C   0  0  0  0  0  0  0  0  0  0  0  0
    1.0727    5.2704    0.0000 C   0  0  0  0  0  0  0  0  0  0  0  0
    2.6119    7.1360    0.0000 C   0  0  0  0  0  0  0  0  0  0  0  0
    5.0372    6.8562    0.0000 C   0  0  0  0  0  0  0  0  0  0  0  0
    6.3898    4.8040    0.0000 C   0  0  0  0  0  0  0  0  0  0  0  0
    0.0000    6.2032    0.0000 C   0  0  0  0  0  0  0  0  0  0  0  0
    3.9178    7.6024    0.0000 O   0  0  0  0  0  0  0  0  0  0  0  0
    1.5391    8.0222    0.0000 O   0  0  0  0  0  0  0  0  0  0  0  0
    6.3431    7.6024    0.0000 C   0  0  0  0  0  0  0  0  0  0  0  0
    7.6024    5.5036    0.0000 C   0  0  0  0  0  0  0  0  0  0  0  0
    6.3898    3.4048    0.0000 C   0  0  0  0  0  0  0  0  0  0  0  0
    1.7723    9.4214    0.0000 C   0  0  0  0  0  0  0  0  0  0  0  0
    7.6024    6.9028    0.0000 C   0  0  0  0  0  0  0  0  0  0  0  0
    7.6024    2.7052    0.0000 C   0  0  0  0  0  0  0  0  0  0  0  0
    3.0783    9.8878    0.0000 C   0  0  0  0  0  0  0  0  0  0  0  0
    8.7685    3.4048    0.0000 C   0  0  0  0  0  0  0  0  0  0  0  0
    8.7685    4.8040    0.0000 O   0  0  0  0  0  0  0  0  0  0  0  0
    9.9811    2.7052    0.0000 O   0  0  0  0  0  0  0  0  0  0  0  0
   11.1938    3.4048    0.0000 C   0  0  0  0  0  0  0  0  0  0  0  0
   12.1266    4.4775    0.0000 C   0  0  0  0  0  0  0  0  0  0  0  0
   12.4064    2.7052    0.0000 C   0  0  0  0  0  0  0  0  0  0  0  0
   10.3076    4.4775    0.0000 C   0  0  0  0  0  0  0  0  0  0  0  0
  1  2  1  0  0  0  0 
  2  3  1  0  0  0  0 
  3  4  1  0  0  0  0 
  4  5  2  0  0  0  0 
  4  6  1  0  0  0  0 
  6  7  2  0  0  0  0 
  6  8  1  0  0  0  0 
  7  9  1  0  0  0  0 
  7 10  1  0  0  0  0 
 11  8  1  0  0  0  0 
  8 12  1  0  0  0  0 
 10 13  1  0  0  0  0 
 13 11  2  0  0  0  0 
 11 14  1  0  0  0  0 
 12 15  2  0  0  0  0 
 12 16  1  0  0  0  0 
 13 17  1  0  0  0  0 
 14 18  2  0  0  0  0 
 14 19  1  0  0  0  0 
 15 20  1  0  0  0  0 
 21 16  2  0  0  0  0 
 16 22  1  0  0  0  0 
 19 23  1  0  0  0  0 
 20 24  2  0  0  0  0 
 24 21  1  0  0  0  0 
 22 25  2  0  0  0  0 
 23 26  1  0  0  0  0 
 25 27  1  0  0  0  0 
 27 28  2  0  0  0  0 
 27 29  1  0  0  0  0 
 29 30  1  0  0  0  0 
 30 31  1  0  0  0  0 
 30 32  1  0  0  0  0 
 30 33  1  0  0  0  0 
M  END
> <Name>
3,5-Pyridinedicarboxylic acid, 1,4-dihydro-2,6-dimethyl-4-(2-(3-(1,1-dimethylethoxy)-3-oxo-1-propenyl)phenyl)-, diethyl ester, (E)-

> <Source>
IndexNet2DMolFile

> <Tox>
2.714

> <CAS>
103890-78-4

$$$$

  CDK

 22 24  0  0  0  0  0  0  0  0999 V2000
   14.5519    0.0000    0.0000 Cl  0  0  0  0  0  0  0  0  0  0  0  0
   13.3393    0.6996    0.0000 C   0  0  0  0  0  0  0  0  0  0  0  0
   12.1266    0.0000    0.0000 C   0  0  0  0  0  0  0  0  0  0  0  0
   13.3393    2.0988    0.0000 N   0  0  0  0  0  0  0  0  0  0  0  0
   10.9139    0.6996    0.0000 C   0  0  0  0  0  0  0  0  0  0  0  0
   12.1266    2.7984    0.0000 N   0  0  0  0  0  0  0  0  0  0  0  0
   10.9139    2.0988    0.0000 C   0  0  0  0  0  0  0  0  0  0  0  0
    9.7013    2.7984    0.0000 N   0  0  0  0  0  0  0  0  0  0  0  0
    8.4886    2.0988    0.0000 C   0  0  0  0  0  0  0  0  0  0  0  0
    9.7013    4.1977    0.0000 C   0  0  0  0  0  0  0  0  0  0  0  0
    7.2760    2.7984    0.0000 C   0  0  0  0  0  0  0  0  0  0  0  0
    8.4886    4.8973    0.0000 C   0  0  0  0  0  0  0  0  0  0  0  0
    7.2760    4.1977    0.0000 N   0  0  0  0  0  0  0  0  0  0  0  0
    6.0633    4.8973    0.0000 C   0  0  0  0  0  0  0  0  0  0  0  0
    4.8506    4.1977    0.0000 C   0  0  0  0  0  0  0  0  0  0  0  0
    3.6380    4.8973    0.0000 C   0  0  0  0  0  0  0  0  0  0  0  0
    2.4253    4.1977    0.0000 C   0  0  0  0  0  0  0  0  0  0  0  0
    2.4253    2.7984    0.0000 C   0  0  0  0  0  0  0  0  0  0  0  0
    1.2127    4.8973    0.0000 C   0  0  0  0  0  0  0  0  0  0  0  0
    1.2127    2.0988    0.0000 C   0  0  0  0  0  0  0  0  0  0  0  0
    0.0000    4.1977    0.0000 C   0  0  0  0  0  0  0  0  0  0  0  0
    0.0000    2.7984    0.0000 C   0  0  0  0  0  0  0  0  0  0  0  0
  1  2  1  0  0  0  0 
  2  3  2  0  0  0  0 
  2  4  1  0  0  0  0 
  3  5  1  0  0  0  0 
  6  4  2  0  0  0  0 
  5  7  2  0  0  0  0 
  7  6  1  0  0  0  0 
  7  8  1  0  0  0  0 
  8  9  1  0  0  0  0 
  8 10  1  0  0  0  0 
  9 11  1  0  0  0  0 
 12 10  1  0  0  0  0 
 11 13  1  0  0  0  0 
 13 12  1  0  0  0  0 
 13 14  1  0  0  0  0 
 14 15  1  0  0  0  0 
 15 16  2  0  0  0  0 
 16 17  1  0  0  0  0 
 17 18  2  0  0  0  0 
 17 19  1  0  0  0  0 
 18 20  1  0  0  0  0 
 21 19  2  0  0  0  0 
 20 22  2  0  0  0  0 
 22 21  1  0  0  0  0 
M  END
> <Name>
Pyridazine, 3-chloro-6-(4-(3-phenyl-2-propenyl)-1-piperazinyl)-, (E)-

> <Source>
IndexNet2DMolFile

> <Tox>
2.814

> <CAS>
104719-71-3

$$$$

  CDK

 13 13  0  0  0  0  0  0  0  0999 V2000
   -5.5287    1.8979    0.0000 O   0  0  0  0  0  0  0  0  0  0  0  0
   -4.8287    3.1104    0.0000 C   0  0  0  0  0  0  0  0  0  0  0  0
   -4.5919    0.8575    0.0000 C   0  0  0  0  0  0  0  0  0  0  0  0
   -3.4593    2.8193    0.0000 S   0  0  0  0  0  0  0  0  0  0  0  0
   -3.3129    1.4270    0.0000 C   0  0  0  0  0  0  0  0  0  0  0  0
   -5.7245    0.0346    0.0000 C   0  0  0  0  0  0  0  0  0  0  0  0
   -3.8919   -0.3549    0.0000 C   0  0  0  0  0  0  0  0  0  0  0  0
   -2.1005    0.7270    0.0000 N   0  0  0  0  0  0  0  0  0  0  0  0
   -0.8881    1.4270    0.0000 O   0  0  0  0  0  0  0  0  0  0  0  0
    0.3244    0.7270    0.0000 C   0  0  0  0  0  0  0  0  0  0  0  0
    0.3244   -0.6730    0.0000 O   0  0  0  0  0  0  0  0  0  0  0  0
    1.5368    1.4270    0.0000 N   0  0  0  0  0  0  0  0  0  0  0  0
    2.7492    0.7270    0.0000 C   0  0  0  0  0  0  0  0  0  0  0  0
  2  1  1  0  0  0  0 
  3  1  1  0  0  0  0 
  4  2  1  0  0  0  0 
  3  5  1  0  0  0  0 
  3  6  1  0  0  0  0 
  3  7  1  0  0  0  0 
  5  4  1  0  0  0  0 
  5  8  2  0  0  0  0 
  9  8  1  0  0  0  0 
  9 10  1  0  0  0  0 
 11 10  2  0  0  0  0 
 10 12  1  0  0  0  0 
 12 13  1  0  0  0  0 
M  END
> <Name>
1,3-Oxathiolan-4-one, 5,5-dimethyl-, O-((methylamino)carbonyl)oxime, syn-

> <Source>
IndexNet2DMolFile

> <Tox>
5.009

> <CAS>
106231-36-1

$$$$

  CDK

 13 13  0  0  0  0  0  0  0  0999 V2000
    1.4688   -3.3890   -0.2632 S   0  0  0  0  0  0  0  0  0  0  0  0
    0.7645   -1.8186   -0.8221 C   0  0  0  0  0  0  0  0  0  0  0  0
    0.2308   -3.8486    0.8770 C   0  0  0  0  0  0  0  0  0  0  0  0
    0.3673   -0.9647    0.3668 C   0  0  0  0  0  0  0  0  0  0  0  0
   -0.0990   -5.0903    1.0039 N   0  0  0  0  0  0  0  0  0  0  0  0
   -0.3945   -2.7757    1.7460 C   0  0  0  0  0  0  0  0  0  0  0  0
   -0.7090   -1.5653    1.0798 O   0  0  0  0  0  0  0  0  0  0  0  0
    0.6362   -5.8397    0.0762 O   0  0  0  0  0  0  0  0  0  0  0  0
    0.4501   -2.5304    2.9944 C   0  0  0  0  0  0  0  0  0  0  0  0
    0.2935   -7.1583    0.2028 C   0  0  0  0  0  0  0  0  0  0  0  0
   -0.5277   -7.6000    1.0008 O   0  0  0  0  0  0  0  0  0  0  0  0
    1.0102   -7.9100   -0.7055 N   0  0  0  0  0  0  0  0  0  0  0  0
    0.8801   -9.3430   -0.8328 C   0  0  0  0  0  0  0  0  0  0  0  0
  1  2  1  0  0  0  0 
  1  3  1  0  0  0  0 
  4  2  1  0  0  0  0 
  5  3  2  0  0  0  0 
  6  3  1  0  0  0  0 
  7  4  1  0  0  0  0 
  8  5  1  0  0  0  0 
  7  6  1  0  0  0  0 
  6  9  1  0  0  0  0 
  8 10  1  0  0  0  0 
 11 10  2  0  0  0  0 
 12 10  1  0  0  0  0 
 12 13  1  0  0  0  0 
M  END
> <Name>
1,4-Oxathian-3-one, 2-methyl-, O-((methylamino)carbonyl)oxime, syn-

> <Source>
Chemidplus3DMolFile

> <Tox>
4.532

> <CAS>
106358-90-1

$$$$

  CDK

 14 14  0  0  0  0  0  0  0  0999 V2000
    1.0397   -0.0297    3.5420 S   0  0  0  0  0  0  0  0  0  0  0  0
    1.8352   -1.5392    3.1576 C   0  0  0  0  0  0  0  0  0  0  0  0
   -0.0820    0.0802    2.1311 C   0  0  0  0  0  0  0  0  0  0  0  0
    2.1936   -2.3123    4.1292 N   0  0  0  0  0  0  0  0  0  0  0  0
    2.1604   -1.8562    1.6959 C   0  0  0  0  0  0  0  0  0  0  0  0
    0.6837   -0.1425    0.8440 C   0  0  0  0  0  0  0  0  0  0  0  0
    1.7477   -1.7458    5.3298 O   0  0  0  0  0  0  0  0  0  0  0  0
    1.1453   -1.4849    0.7695 O   0  0  0  0  0  0  0  0  0  0  0  0
    3.4987   -1.2017    1.3229 C   0  0  0  0  0  0  0  0  0  0  0  0
    2.3023   -3.3771    1.5160 C   0  0  0  0  0  0  0  0  0  0  0  0
    2.1226   -2.5576    6.3654 C   0  0  0  0  0  0  0  0  0  0  0  0
    2.7492   -3.6063    6.2482 O   0  0  0  0  0  0  0  0  0  0  0  0
    1.6904   -2.0133    7.5574 N   0  0  0  0  0  0  0  0  0  0  0  0
    1.9273   -2.6243    8.8447 C   0  0  0  0  0  0  0  0  0  0  0  0
  1  2  1  0  0  0  0 
  1  3  1  0  0  0  0 
  4  2  2  0  0  0  0 
  5  2  1  0  0  0  0 
  6  3  1  0  0  0  0 
  7  4  1  0  0  0  0 
  8  5  1  0  0  0  0 
  5  9  1  0  0  0  0 
  5 10  1  0  0  0  0 
  8  6  1  0  0  0  0 
  7 11  1  0  0  0  0 
 12 11  2  0  0  0  0 
 13 11  1  0  0  0  0 
 13 14  1  0  0  0  0 
M  END
> <Name>
1,4-Oxathian-3-one, 2,2-dimethyl-, O-((methylamino)carbonyl)oxime, syn-

> <Source>
Chemidplus3DMolFile

> <Tox>
5.561

> <CAS>
106358-92-3

$$$$

  CDK

 23 24  0  0  0  0  0  0  0  0999 V2000
    1.1652    1.6395    0.1629 C   0  0  0  0  0  0  0  0  0  0  0  0
    0.2742    1.4350   -0.8636 C   0  0  0  0  0  0  0  0  0  0  0  0
    2.3229    0.8290    0.2824 C   0  0  0  0  0  0  0  0  0  0  0  0
    0.5140    0.4052   -1.8100 C   0  0  0  0  0  0  0  0  0  0  0  0
   -0.9532    2.2887   -1.0286 C   0  0  0  0  0  0  0  0  0  0  0  0
    2.5592   -0.1913   -0.6602 C   0  0  0  0  0  0  0  0  0  0  0  0
    3.2520    1.0288    1.3424 C   0  0  0  0  0  0  0  0  0  0  0  0
    1.6255   -0.3869   -1.7127 C   0  0  0  0  0  0  0  0  0  0  0  0
   -1.8555    2.1354    0.1933 C   0  0  0  0  0  0  0  0  0  0  0  0
   -0.5903    3.7506   -1.2412 C   0  0  0  0  0  0  0  0  0  0  0  0
    3.7171   -1.0058   -0.5460 C   0  0  0  0  0  0  0  0  0  0  0  0
    4.3642    0.2447    1.4507 C   0  0  0  0  0  0  0  0  0  0  0  0
   -1.7470    2.6589    1.2843 O   0  0  0  0  0  0  0  0  0  0  0  0
   -2.9076    1.2992   -0.0400 O   0  0  0  0  0  0  0  0  0  0  0  0
    4.5965   -0.7864    0.4903 C   0  0  0  0  0  0  0  0  0  0  0  0
   -3.8043    1.0130    1.0329 C   0  0  0  0  0  0  0  0  0  0  0  0
    5.7573   -1.4925    0.7293 O   0  0  0  0  0  0  0  0  0  0  0  0
   -4.8104   -0.0154    0.5046 C   0  0  0  0  0  0  0  0  0  0  0  0
    6.0750   -2.5365   -0.1576 C   0  0  0  0  0  0  0  0  0  0  0  0
   -4.2160   -1.2960    0.6405 O   0  0  0  0  0  0  0  0  0  0  0  0
   -5.0075   -2.3439    0.1024 C   0  0  0  0  0  0  0  0  0  0  0  0
   -4.1894   -3.6367    0.2404 C   0  0  0  0  0  0  0  0  0  0  0  0
   -3.1653   -3.7438   -0.7096 O   0  0  0  0  0  0  0  0  0  0  0  0
  1  2  2  0  0  0  0 
  1  3  1  0  0  0  0 
  2  4  1  0  0  0  0 
  2  5  1  0  0  0  0 
  6  3  1  0  0  0  0 
  7  3  2  0  0  0  0 
  4  8  2  0  0  0  0 
  9  5  1  0  0  0  0 
  5 10  1  0  0  0  0 
  8  6  1  0  0  0  0 
  6 11  2  0  0  0  0 
 12  7  1  0  0  0  0 
  9 13  2  0  0  0  0 
  9 14  1  0  0  0  0 
 11 15  1  0  0  0  0 
 15 12  2  0  0  0  0 
 14 16  1  0  0  0  0 
 15 17  1  0  0  0  0 
 16 18  1  0  0  0  0 
 17 19  1  0  0  0  0 
 18 20  1  0  0  0  0 
 20 21  1  0  0  0  0 
 21 22  1  0  0  0  0 
 22 23  1  0  0  0  0 
M  END
> <Name>
2-Naphthaleneacetic acid, 6-methoxy-alpha-methyl-, 2-(2-hydroxyethoxy)ethyl ester

> <Source>
DougDB3DMolFile

> <Tox>
2.698

> <CAS>
110599-11-6

$$$$

  CDK

 14 14  0  0  0  0  0  0  0  0999 V2000
   -3.8265   -0.1367    0.0127 C   0  0  0  0  0  0  0  0  0  0  0  0
   -5.0696    0.7166    0.0033 C   0  0  0  0  0  0  0  0  0  0  0  0
   -3.8325   -1.3545    0.0320 O   0  0  0  0  0  0  0  0  0  0  0  0
   -2.5910    0.5837   -0.0035 N   0  0  0  0  0  0  0  0  0  0  0  0
   -1.2812    0.0645   -0.0009 C   0  0  0  0  0  0  0  0  0  0  0  0
   -0.9041   -1.2931    0.0215 C   0  0  0  0  0  0  0  0  0  0  0  0
   -0.3418    1.0569   -0.0245 N   0  0  0  0  0  0  0  0  0  0  0  0
    0.4430   -1.6038    0.0249 C   0  0  0  0  0  0  0  0  0  0  0  0
    0.9772    0.7511   -0.0194 C   0  0  0  0  0  0  0  0  0  0  0  0
    1.4161   -0.5866    0.0097 C   0  0  0  0  0  0  0  0  0  0  0  0
    2.0135    2.0701   -0.0651 Cl  0  0  0  0  0  0  0  0  0  0  0  0
    2.8593   -0.9622    0.0266 N   0  0  0  0  0  0  0  0  0  0  0  0
    3.1740   -2.1055   -0.2412 O   0  0  0  0  0  0  0  0  0  0  0  0
    3.6967   -0.1310    0.3122 O   0  0  0  0  0  0  0  0  0  0  0  0
  1  2  1  0  0  0  0 
  1  3  2  0  0  0  0 
  1  4  1  0  0  0  0 
  4  5  1  0  0  0  0 
  5  6  1  0  0  0  0 
  5  7  2  0  0  0  0 
  6  8  2  0  0  0  0 
  9  7  1  0  0  0  0 
  8 10  1  0  0  0  0 
 10  9  2  0  0  0  0 
  9 11  1  0  0  0  0 
 10 12  1  0  0  0  0 
 12 13  2  0  0  0  0 
 12 14  1  0  0  0  0 
M  CHG  1  12   1
M  CHG  1  14  -1
M  END
> <Name>
Acetamide, N-(6-chloro-5-nitro-2-pyridinyl)-

> <Source>
DougDB3DMolFile

> <Tox>
2.046

> <CAS>
110882-70-7

$$$$

  CDK

 31 35  0  0  0  0  0  0  0  0999 V2000
   -4.4294   -0.5259   -0.5218 O   0  0  0  0  0  0  0  0  0  0  0  0
   -5.6266   -0.0069   -1.1457 C   0  0  0  0  0  0  0  0  0  0  0  0
   -3.3618    0.3252   -0.4346 C   0  0  0  0  0  0  0  0  0  0  0  0
   -5.9733    1.3816   -0.5288 C   0  0  0  0  0  0  0  0  0  0  0  0
   -5.4247   -0.0276   -2.6711 C   0  0  0  0  0  0  0  0  0  0  0  0
   -6.7099   -1.0464   -0.7981 C   0  0  0  0  0  0  0  0  0  0  0  0
   -3.4601    1.7176   -0.5373 C   0  0  0  0  0  0  0  0  0  0  0  0
   -2.1219   -0.2875   -0.2223 C   0  0  0  0  0  0  0  0  0  0  0  0
   -4.8061    2.3959   -0.7362 C   0  0  0  0  0  0  0  0  0  0  0  0
   -7.3303    1.9424   -0.9438 C   0  0  0  0  0  0  0  0  0  0  0  0
   -2.2751    2.4742   -0.5006 C   0  0  0  0  0  0  0  0  0  0  0  0
   -0.9616    0.4797   -0.1560 C   0  0  0  0  0  0  0  0  0  0  0  0
   -4.9991    3.6286    0.1475 C   0  0  0  0  0  0  0  0  0  0  0  0
   -8.4826    1.5047   -0.3001 C   0  0  0  0  0  0  0  0  0  0  0  0
   -7.4032    2.8861   -1.9624 C   0  0  0  0  0  0  0  0  0  0  0  0
   -1.0369    1.8604   -0.3053 C   0  0  0  0  0  0  0  0  0  0  0  0
    0.2432   -0.1211    0.0411 O   0  0  0  0  0  0  0  0  0  0  0  0
   -5.0077    3.4871    1.5295 C   0  0  0  0  0  0  0  0  0  0  0  0
   -5.1628    4.8761   -0.4412 C   0  0  0  0  0  0  0  0  0  0  0  0
   -9.7232    2.0170   -0.6798 C   0  0  0  0  0  0  0  0  0  0  0  0
   -8.6437    3.3985   -2.3421 C   0  0  0  0  0  0  0  0  0  0  0  0
    1.3917    0.7246    0.0844 C   0  0  0  0  0  0  0  0  0  0  0  0
   -5.1830    4.6116    2.3359 C   0  0  0  0  0  0  0  0  0  0  0  0
   -5.3380    6.0007    0.3653 C   0  0  0  0  0  0  0  0  0  0  0  0
   -9.8037    2.9639   -1.7008 C   0  0  0  0  0  0  0  0  0  0  0  0
   -5.3481    5.8684    1.7539 C   0  0  0  0  0  0  0  0  0  0  0  0
   -5.5201    6.9661    2.5400 O   0  0  0  0  0  0  0  0  0  0  0  0
   -5.0443    8.2109    2.0302 C   0  0  0  0  0  0  0  0  0  0  0  0
   -4.6486    9.0941    3.1632 C   0  0  0  0  0  0  0  0  0  0  0  0
   -3.3175    9.6072    3.0715 O   0  0  0  0  0  0  0  0  0  0  0  0
   -3.5840    8.6758    4.1279 C   0  0  0  0  0  0  0  0  0  0  0  0
  1  2  1  0  0  0  0 
  1  3  1  0  0  0  0 
  4  2  1  0  0  0  0 
  2  5  1  0  0  0  0 
  2  6  1  0  0  0  0 
  7  3  2  0  0  0  0 
  3  8  1  0  0  0  0 
  4  9  1  0  0  0  0 
  4 10  1  0  0  0  0 
  9  7  1  0  0  0  0 
  7 11  1  0  0  0  0 
  8 12  2  0  0  0  0 
  9 13  1  0  0  0  0 
 10 14  2  0  0  0  0 
 10 15  1  0  0  0  0 
 11 16  2  0  0  0  0 
 17 12  1  0  0  0  0 
 16 12  1  0  0  0  0 
 13 18  2  0  0  0  0 
 13 19  1  0  0  0  0 
 14 20  1  0  0  0  0 
 15 21  2  0  0  0  0 
 17 22  1  0  0  0  0 
 18 23  1  0  0  0  0 
 19 24  2  0  0  0  0 
 20 25  2  0  0  0  0 
 21 25  1  0  0  0  0 
 23 26  2  0  0  0  0 
 24 26  1  0  0  0  0 
 27 26  1  0  0  0  0 
 27 28  1  0  0  0  0 
 29 28  1  0  0  0  0 
 30 29  1  0  0  0  0 
 29 31  1  0  0  0  0 
 30 31  1  0  0  0  0 
M  END
> <Name>
2H-1-Benzopyran, 3,4-dihydro-7-methoxy-2,2-dimethyl-4-(4-(oxiranylmethoxy)phenyl)-3-phenyl-, trans-

> <Source>
Chemidplus3DMolFile

> <Tox>
2.717

> <CAS>
111038-47-2

$$$$

  CDK

 31 33  0  0  0  0  0  0  0  0999 V2000
    1.2127    3.4981    0.0000 C   0  0  0  0  0  0  0  0  0  0  0  0
    1.2127    2.0988    0.0000 C   0  0  0  0  0  0  0  0  0  0  0  0
    2.4253    4.1977    0.0000 C   0  0  0  0  0  0  0  0  0  0  0  0
    2.4253    1.3992    0.0000 C   0  0  0  0  0  0  0  0  0  0  0  0
    0.0000    1.3992    0.0000 Cl  0  0  0  0  0  0  0  0  0  0  0  0
    3.6380    3.4981    0.0000 C   0  0  0  0  0  0  0  0  0  0  0  0
    3.6380    2.0988    0.0000 C   0  0  0  0  0  0  0  0  0  0  0  0
    4.8506    4.1977    0.0000 N   0  0  0  0  0  0  0  0  0  0  0  0
    4.8506    1.3992    0.0000 N   0  0  0  0  0  0  0  0  0  0  0  0
    6.0633    3.4981    0.0000 C   0  0  0  0  0  0  0  0  0  0  0  0
    6.0633    2.0988    0.0000 C   0  0  0  0  0  0  0  0  0  0  0  0
    7.2760    4.1977    0.0000 O   0  0  0  0  0  0  0  0  0  0  0  0
    8.4886    3.4981    0.0000 C   0  0  0  0  0  0  0  0  0  0  0  0
    8.4886    2.0988    0.0000 C   0  0  0  0  0  0  0  0  0  0  0  0
    9.7013    4.1977    0.0000 C   0  0  0  0  0  0  0  0  0  0  0  0
    9.7013    1.3992    0.0000 C   0  0  0  0  0  0  0  0  0  0  0  0
   10.9139    3.4981    0.0000 C   0  0  0  0  0  0  0  0  0  0  0  0
   10.9139    2.0988    0.0000 C   0  0  0  0  0  0  0  0  0  0  0  0
   12.1266    1.3992    0.0000 O   0  0  0  0  0  0  0  0  0  0  0  0
   13.3393    2.0988    0.0000 C   0  0  0  0  0  0  0  0  0  0  0  0
   14.5519    1.3992    0.0000 C   0  0  0  0  0  0  0  0  0  0  0  0
   13.3393    3.4981    0.0000 C   0  0  0  0  0  0  0  0  0  0  0  0
   15.7646    2.0988    0.0000 O   0  0  0  0  0  0  0  0  0  0  0  0
   14.5519    0.0000    0.0000 O   0  0  0  0  0  0  0  0  0  0  0  0
   16.9772    1.3992    0.0000 C   0  0  0  0  0  0  0  0  0  0  0  0
   18.1899    2.0988    0.0000 C   0  0  0  0  0  0  0  0  0  0  0  0
   19.4026    1.3992    0.0000 O   0  0  0  0  0  0  0  0  0  0  0  0
   20.6152    2.0988    0.0000 N   0  0  0  0  0  0  0  0  0  0  0  0
   21.8279    1.3992    0.0000 C   0  0  0  0  0  0  0  0  0  0  0  0
   23.0405    2.0988    0.0000 C   0  0  0  0  0  0  0  0  0  0  0  0
   21.8279    0.0000    0.0000 C   0  0  0  0  0  0  0  0  0  0  0  0
  1  2  2  0  0  0  0 
  1  3  1  0  0  0  0 
  2  4  1  0  0  0  0 
  2  5  1  0  0  0  0 
  6  3  2  0  0  0  0 
  4  7  2  0  0  0  0 
  7  6  1  0  0  0  0 
  6  8  1  0  0  0  0 
  7  9  1  0  0  0  0 
 10  8  2  0  0  0  0 
  9 11  2  0  0  0  0 
 11 10  1  0  0  0  0 
 10 12  1  0  0  0  0 
 12 13  1  0  0  0  0 
 13 14  2  0  0  0  0 
 13 15  1  0  0  0  0 
 14 16  1  0  0  0  0 
 17 15  2  0  0  0  0 
 16 18  2  0  0  0  0 
 18 17  1  0  0  0  0 
 18 19  1  0  0  0  0 
 19 20  1  0  0  0  0 
 20 21  1  0  0  0  0 
 20 22  1  6  0  0  0 
 21 23  1  0  0  0  0 
 21 24  2  0  0  0  0 
 23 25  1  0  0  0  0 
 25 26  1  0  0  0  0 
 26 27  1  0  0  0  0 
 27 28  1  0  0  0  0 
 28 29  2  0  0  0  0 
 29 30  1  0  0  0  0 
 29 31  1  0  0  0  0 
M  END
> <Name>
Propanoic acid, 2-(4-((6-chloro-2-quinoxalinyl)oxy)phenoxy)-, 2-(((1-methylethylidene)amino)oxy)ethyl ester, (R)-

> <Source>
IndexNet2DMolFile

> <Tox>
1.948

> <CAS>
111479-05-1

$$$$

  CDK

 26 27  0  0  0  0  0  0  0  0999 V2000
    3.4494   -3.3353    0.0000 C   0  0  0  0  0  0  0  0  0  0  0  0
    4.6034   -3.9947    0.0000 C   0  0  0  0  0  0  0  0  0  0  0  0
    2.3081   -3.9947    0.0000 C   0  0  0  0  0  0  0  0  0  0  0  0
    3.4494   -2.0037    0.0000 C   0  0  0  0  0  0  0  0  0  0  0  0
    4.6034   -5.3263    0.0000 C   0  0  0  0  0  0  0  0  0  0  0  0
    5.7575   -3.3353    0.0000 C   0  0  0  0  0  0  0  0  0  0  0  0
    1.1540   -3.3353    0.0000 C   0  0  0  0  0  0  0  0  0  0  0  0
    2.3081   -5.3263    0.0000 C   0  0  0  0  0  0  0  0  0  0  0  0
    2.3081   -1.3316    0.0000 C   0  0  0  0  0  0  0  0  0  0  0  0
    4.6034   -1.3316    0.0000 O   0  0  0  0  0  0  0  0  0  0  0  0
    5.7575   -5.9984    0.0000 C   0  0  0  0  0  0  0  0  0  0  0  0
    3.4494   -5.9984    0.0000 C   0  0  0  0  0  0  0  0  0  0  0  0
    6.9242   -3.9947    0.0000 C   0  0  0  0  0  0  0  0  0  0  0  0
    1.1540   -2.0037    0.0000 C   0  0  0  0  0  0  0  0  0  0  0  0
    0.0000   -3.9947    0.0000 O   0  0  0  0  0  0  0  0  0  0  0  0
    2.3081   -0.0000    0.0000 C   0  0  0  0  0  0  0  0  0  0  0  0
    5.7575   -7.3173    0.0000 C   0  0  0  0  0  0  0  0  0  0  0  0
    3.4494   -7.3173    0.0000 C   0  0  0  0  0  0  0  0  0  0  0  0
    8.0782   -3.3353    0.0000 C   0  0  0  0  0  0  0  0  0  0  0  0
    0.0000   -1.3316    0.0000 C   0  0  0  0  0  0  0  0  0  0  0  0
    4.6034   -7.9894    0.0000 C   0  0  0  0  0  0  0  0  0  0  0  0
    9.2196   -3.9947    0.0000 C   0  0  0  0  0  0  0  0  0  0  0  0
   10.3736   -3.3353    0.0000 C   0  0  0  0  0  0  0  0  0  0  0  0
   11.5276   -3.9947    0.0000 C   0  0  0  0  0  0  0  0  0  0  0  0
   12.6817   -3.3353    0.0000 O   0  0  0  0  0  0  0  0  0  0  0  0
   11.5276   -5.3263    0.0000 O   0  0  0  0  0  0  0  0  0  0  0  0
  1  2  1  0  0  0  0 
  1  3  2  0  0  0  0 
  1  4  1  0  0  0  0 
  2  5  1  0  0  0  0 
  2  6  1  0  0  0  0 
  3  7  1  0  0  0  0 
  3  8  1  0  0  0  0 
  4  9  1  0  0  0  0 
  4 10  2  0  0  0  0 
  5 11  1  0  0  0  0 
  5 12  2  0  0  0  0 
  6 13  1  0  0  0  0 
  7 14  1  0  0  0  0 
  7 15  2  0  0  0  0 
  9 16  1  0  0  0  0 
  9 14  2  0  0  0  0 
 11 17  2  0  0  0  0 
 12 18  1  0  0  0  0 
 13 19  1  0  0  0  0 
 14 20  1  0  0  0  0 
 17 21  1  0  0  0  0 
 18 21  2  0  0  0  0 
 19 22  1  0  0  0  0 
 22 23  1  0  0  0  0 
 23 24  1  0  0  0  0 
 24 25  1  0  0  0  0 
 24 26  2  0  0  0  0 
M  END
> <Name>
Benzeneheptanoic acid, zeta-(2,4,5-trimethyl-3,6-dioxo-1,4-cyclohexadien-1-yl)-, (+-)-

> <Source>
DSSTox2DMolFile

> <Tox>
1.976

> <CAS>
112665-43-7

$$$$

  CDK

 26 28  0  0  0  0  0  0  0  0999 V2000
   -2.9983   -7.1914    8.2466 Br  0  0  0  0  0  0  0  0  0  0  0  0
   -1.7993   -7.0103    6.7971 C   0  0  0  0  0  0  0  0  0  0  0  0
   -2.0673   -7.6495    5.5865 C   0  0  0  0  0  0  0  0  0  0  0  0
   -0.6458   -6.2385    6.9378 C   0  0  0  0  0  0  0  0  0  0  0  0
   -1.1821   -7.5166    4.5168 C   0  0  0  0  0  0  0  0  0  0  0  0
    0.2393   -6.1056    5.8679 C   0  0  0  0  0  0  0  0  0  0  0  0
   -1.4477   -8.1342    3.3574 F   0  0  0  0  0  0  0  0  0  0  0  0
   -0.0350   -6.7456    4.6651 C   0  0  0  0  0  0  0  0  0  0  0  0
    0.9201   -6.6013    3.5158 C   0  0  0  0  0  0  0  0  0  0  0  0
    0.5896   -5.4565    2.6708 N   0  0  0  0  0  0  0  0  0  0  0  0
   -0.2762   -5.6632    1.5745 C   0  0  0  0  0  0  0  0  0  0  0  0
    1.1910   -4.2401    3.0237 C   0  0  0  0  0  0  0  0  0  0  0  0
   -0.7485   -6.7751    1.3123 O   0  0  0  0  0  0  0  0  0  0  0  0
   -0.5627   -4.5257    0.7999 N   0  0  0  0  0  0  0  0  0  0  0  0
    1.9643   -4.0921    3.9674 O   0  0  0  0  0  0  0  0  0  0  0  0
    0.8503   -3.0855    2.1778 C   0  0  0  0  0  0  0  0  0  0  0  0
   -0.0124   -3.2432    1.0921 C   0  0  0  0  0  0  0  0  0  0  0  0
   -1.4586   -4.6628   -0.3485 C   0  0  0  0  0  0  0  0  0  0  0  0
    1.4051   -1.8325    2.4821 C   0  0  0  0  0  0  0  0  0  0  0  0
   -0.3086   -2.1101    0.3135 C   0  0  0  0  0  0  0  0  0  0  0  0
   -2.9058   -4.4367    0.0059 C   0  0  0  0  0  0  0  0  0  0  0  0
    1.0996   -0.7230    1.6992 C   0  0  0  0  0  0  0  0  0  0  0  0
    0.2426   -0.8619    0.6150 C   0  0  0  0  0  0  0  0  0  0  0  0
   -3.1031   -4.1388    1.3112 O   0  0  0  0  0  0  0  0  0  0  0  0
   -3.8165   -4.5138   -0.8097 O   0  0  0  0  0  0  0  0  0  0  0  0
   -0.0562    0.2012   -0.1432 F   0  0  0  0  0  0  0  0  0  0  0  0
  1  2  1  0  0  0  0 
  3  2  2  0  0  0  0 
  4  2  1  0  0  0  0 
  5  3  1  0  0  0  0 
  6  4  2  0  0  0  0 
  7  5  1  0  0  0  0 
  8  5  2  0  0  0  0 
  8  6  1  0  0  0  0 
  9  8  1  0  0  0  0 
 10  9  1  0  0  0  0 
 10 11  1  0  0  0  0 
 10 12  1  0  0  0  0 
 13 11  2  0  0  0  0 
 14 11  1  0  0  0  0 
 15 12  2  0  0  0  0 
 16 12  1  0  0  0  0 
 14 17  1  0  0  0  0 
 14 18  1  0  0  0  0 
 17 16  2  0  0  0  0 
 16 19  1  0  0  0  0 
 17 20  1  0  0  0  0 
 18 21  1  0  0  0  0 
 19 22  2  0  0  0  0 
 20 23  2  0  0  0  0 
 24 21  1  0  0  0  0 
 25 21  2  0  0  0  0 
 23 22  1  0  0  0  0 
 26 23  1  0  0  0  0 
M  END
> <Name>
1(2H)-Quinazolineacetic acid, 3,4-dihydro-3-((4-bromo-2-fluorophenyl)methyl)-2,4-dioxo-7-fluoro-

> <Source>
Chemidplus3DMolFile

> <Tox>
2.297

> <CAS>
112733-08-1

$$$$

  CDK

 20 22  0  0  0  0  0  0  0  0999 V2000
    2.9557   -5.3930    0.0000 C   0  0  0  0  0  0  0  0  0  0  0  0
    4.0467   -4.6038    0.0000 C   0  0  0  0  0  0  0  0  0  0  0  0
    3.3735   -6.6619    0.0000 C   0  0  0  0  0  0  0  0  0  0  0  0
    5.1222   -5.3930    0.0000 O   0  0  0  0  0  0  0  0  0  0  0  0
    3.3735   -3.4664    0.0000 C   0  0  0  0  0  0  0  0  0  0  0  0
    4.7043   -3.4509    0.0000 C   0  0  0  0  0  0  0  0  0  0  0  0
    4.7043   -6.6619    0.0000 C   0  0  0  0  0  0  0  0  0  0  0  0
    2.5843   -7.7374    0.0000 Br  0  0  0  0  0  0  0  0  0  0  0  0
    2.0349   -3.4664    0.0000 N   0  0  0  0  0  0  0  0  0  0  0  0
    4.0312   -2.3135    0.0000 C   0  0  0  0  0  0  0  0  0  0  0  0
    6.0352   -3.4509    0.0000 C   0  0  0  0  0  0  0  0  0  0  0  0
    1.2535   -4.5419    0.0000 N   0  0  0  0  0  0  0  0  0  0  0  0
    1.2535   -2.3754    0.0000 C   0  0  0  0  0  0  0  0  0  0  0  0
    4.7043   -1.1374    0.0000 C   0  0  0  0  0  0  0  0  0  0  0  0
    6.6774   -2.3135    0.0000 C   0  0  0  0  0  0  0  0  0  0  0  0
    6.6774   -4.6038    0.0000 Cl  0  0  0  0  0  0  0  0  0  0  0  0
    0.0000   -4.1240    0.0000 C   0  0  0  0  0  0  0  0  0  0  0  0
    0.0000   -2.7932    0.0000 N   0  0  0  0  0  0  0  0  0  0  0  0
    6.0352   -1.1374    0.0000 C   0  0  0  0  0  0  0  0  0  0  0  0
    6.6774   -0.0000    0.0000 Cl  0  0  0  0  0  0  0  0  0  0  0  0
  1  2  1  0  0  0  0 
  1  3  1  0  0  0  0 
  2  4  1  0  0  0  0 
  2  5  1  0  0  0  0 
  2  6  1  0  0  0  0 
  3  7  1  0  0  0  0 
  3  8  1  0  0  0  0 
  4  7  1  0  0  0  0 
  5  9  1  0  0  0  0 
  6 10  1  0  0  0  0 
  6 11  2  0  0  0  0 
  9 12  1  0  0  0  0 
  9 13  1  0  0  0  0 
 10 14  2  0  0  0  0 
 11 15  1  0  0  0  0 
 11 16  1  0  0  0  0 
 12 17  2  0  0  0  0 
 13 18  2  0  0  0  0 
 14 19  1  0  0  0  0 
 15 19  2  0  0  0  0 
 17 18  1  0  0  0  0 
 19 20  1  0  0  0  0 
M  END
> <Name>
1H-1,2,4-Triazole, 1-((4-bromo-2-(2,4-dichlorophenyl)tetrahydro-2-furanyl)methyl)-

> <Source>
DSSTox2DMolFile

> <Tox>
3.014

> <CAS>
116255-48-2

$$$$

  CDK

 19 21  0  0  0  0  0  0  0  0999 V2000
    3.4029   -1.9057   -0.8565 S   0  0  0  0  0  0  0  0  0  0  0  0
    2.7341   -1.1015   -2.3451 C   0  0  0  0  0  0  0  0  0  0  0  0
    2.3082   -1.0732    0.3171 C   0  0  0  0  0  0  0  0  0  0  0  0
    1.0447   -0.4997   -2.0092 S   0  0  0  0  0  0  0  0  0  0  0  0
    3.6231    0.0663   -2.7520 C   0  0  0  0  0  0  0  0  0  0  0  0
    0.9226   -1.0828   -0.2950 C   0  0  0  0  0  0  0  0  0  0  0  0
    4.9745   -0.3505   -3.0405 N   0  0  0  0  0  0  0  0  0  0  0  0
    5.4831   -0.7474   -4.2439 C   0  0  0  0  0  0  0  0  0  0  0  0
    5.9983   -0.4197   -2.1313 C   0  0  0  0  0  0  0  0  0  0  0  0
    6.7970   -1.0377   -3.9961 C   0  0  0  0  0  0  0  0  0  0  0  0
    4.8552   -0.8633   -5.5200 C   0  0  0  0  0  0  0  0  0  0  0  0
    7.1209   -0.8343   -2.6815 N   0  0  0  0  0  0  0  0  0  0  0  0
    7.6515   -1.4816   -4.9959 N   0  0  0  0  0  0  0  0  0  0  0  0
    3.6734   -0.5982   -5.7226 O   0  0  0  0  0  0  0  0  0  0  0  0
    5.7670   -1.3197   -6.5086 N   0  0  0  0  0  0  0  0  0  0  0  0
    7.1590   -1.6417   -6.3153 C   0  0  0  0  0  0  0  0  0  0  0  0
    9.0440   -1.7780   -4.6829 C   0  0  0  0  0  0  0  0  0  0  0  0
    5.2405   -1.4792   -7.8601 C   0  0  0  0  0  0  0  0  0  0  0  0
    7.8731   -2.0336   -7.2453 O   0  0  0  0  0  0  0  0  0  0  0  0
  1  2  1  0  0  0  0 
  1  3  1  0  0  0  0 
  4  2  1  0  0  0  0 
  5  2  1  0  0  0  0 
  3  6  1  0  0  0  0 
  4  6  1  0  0  0  0 
  7  5  1  0  0  0  0 
  7  8  1  0  0  0  0 
  7  9  1  0  0  0  0 
  8 10  2  0  0  0  0 
  8 11  1  0  0  0  0 
 12  9  2  0  0  0  0 
 13 10  1  0  0  0  0 
 12 10  1  0  0  0  0 
 14 11  2  0  0  0  0 
 15 11  1  0  0  0  0 
 13 16  1  0  0  0  0 
 13 17  1  0  0  0  0 
 15 16  1  0  0  0  0 
 15 18  1  0  0  0  0 
 19 16  2  0  0  0  0 
M  END
> <Name>
1H-Purine-2,6-dione, 3,7-dihydro-1,3-dimethyl-7-(1,3-dithiolan-2-ylmethyl)-

> <Source>
Chemidplus3DMolFile

> <Tox>
2.211

> <CAS>
116763-36-1

$$$$

  CDK

 18 17  0  0  0  0  0  0  0  0999 V2000
   -7.0880   -2.7783   -3.8206 Cl  0  0  0  0  0  0  0  0  0  0  0  0
   -7.4407   -4.3289   -4.6219 C   0  0  0  0  0  0  0  0  0  0  0  0
   -8.9546   -4.2004   -5.5507 Cl  0  0  0  0  0  0  0  0  0  0  0  0
   -6.2749   -4.7970   -5.4948 C   0  0  0  0  0  0  0  0  0  0  0  0
   -5.9022   -3.8759   -6.6542 C   0  0  0  0  0  0  0  0  0  0  0  0
   -4.8306   -4.4654   -7.3703 O   0  0  0  0  0  0  0  0  0  0  0  0
   -4.2413   -3.6820   -8.6596 P   0  0  0  0  0  0  0  0  0  0  0  0
   -3.5626   -2.3422   -8.0599 O   0  0  0  0  0  0  0  0  0  0  0  0
   -2.9850   -4.6011   -9.1034 O   0  0  0  0  0  0  0  0  0  0  0  0
   -5.2407   -3.4403   -9.7542 O   0  0  0  0  0  0  0  0  0  0  0  0
   -2.6004   -2.4396   -7.0190 C   0  0  0  0  0  0  0  0  0  0  0  0
   -2.1313   -1.0393   -6.6498 C   0  0  0  0  0  0  0  0  0  0  0  0
   -1.0791   -1.0707   -5.5423 C   0  0  0  0  0  0  0  0  0  0  0  0
   -0.6451    0.3435   -5.1502 C   0  0  0  0  0  0  0  0  0  0  0  0
    0.4276    0.3704   -4.0576 C   0  0  0  0  0  0  0  0  0  0  0  0
    0.9149    1.7805   -3.7174 C   0  0  0  0  0  0  0  0  0  0  0  0
    2.0339    1.7427   -2.6754 C   0  0  0  0  0  0  0  0  0  0  0  0
    2.5492    3.1380   -2.3606 C   0  0  0  0  0  0  0  0  0  0  0  0
  1  2  1  0  0  0  0 
  3  2  1  0  0  0  0 
  4  2  1  0  0  0  0 
  5  4  1  0  0  0  0 
  6  5  1  0  0  0  0 
  7  6  1  0  0  0  0 
  7  8  1  0  0  0  0 
  7  9  1  0  0  0  0 
  7 10  2  0  0  0  0 
  8 11  1  0  0  0  0 
 12 11  1  0  0  0  0 
 13 12  1  0  0  0  0 
 14 13  1  0  0  0  0 
 14 15  1  0  0  0  0 
 15 16  1  0  0  0  0 
 16 17  1  0  0  0  0 
 17 18  1  0  0  0  0 
M  END
> <Name>
Phosphoric acid, mono(dichloropropyl) monooctyl ester

> <Source>
Chemidplus3DMolFile

> <Tox>
1.494

> <CAS>
117617-70-6

$$$$

  CDK

 19 19  0  0  0  0  0  0  0  0999 V2000
   -0.4816   -0.7906   -4.8351 S   0  0  0  0  0  0  0  0  0  0  0  0
    0.8529   -0.9628   -3.8418 C   0  0  0  0  0  0  0  0  0  0  0  0
    2.1170   -1.1603   -4.3039 O   0  0  0  0  0  0  0  0  0  0  0  0
    0.8164   -0.9175   -2.3567 C   0  0  0  0  0  0  0  0  0  0  0  0
    2.4472   -1.2464   -5.7057 C   0  0  0  0  0  0  0  0  0  0  0  0
    1.9022   -1.0695   -1.5630 C   0  0  0  0  0  0  0  0  0  0  0  0
    3.9400   -1.4536   -5.8487 C   0  0  0  0  0  0  0  0  0  0  0  0
    1.8846   -1.0376   -0.1090 C   0  0  0  0  0  0  0  0  0  0  0  0
    0.8176   -0.4410    0.5626 C   0  0  0  0  0  0  0  0  0  0  0  0
    2.9348   -1.6038    0.6137 C   0  0  0  0  0  0  0  0  0  0  0  0
    0.8008   -0.4105    1.9570 C   0  0  0  0  0  0  0  0  0  0  0  0
    2.9180   -1.5734    2.0082 C   0  0  0  0  0  0  0  0  0  0  0  0
   -0.2477    0.1744    2.6010 O   0  0  0  0  0  0  0  0  0  0  0  0
    1.8509   -0.9767    2.6799 C   0  0  0  0  0  0  0  0  0  0  0  0
    3.9499   -2.1296    2.7022 O   0  0  0  0  0  0  0  0  0  0  0  0
   -1.3578   -0.6609    2.9231 C   0  0  0  0  0  0  0  0  0  0  0  0
    1.8342   -0.9471    4.0429 O   0  0  0  0  0  0  0  0  0  0  0  0
    3.8291   -3.5075    3.0496 C   0  0  0  0  0  0  0  0  0  0  0  0
    2.4381    0.1802    4.6730 C   0  0  0  0  0  0  0  0  0  0  0  0
  1  2  2  0  0  0  0 
  3  2  1  0  0  0  0 
  4  2  1  0  0  0  0 
  3  5  1  0  0  0  0 
  6  4  2  0  0  0  0 
  5  7  1  0  0  0  0 
  8  6  1  0  0  0  0 
  8  9  2  0  0  0  0 
  8 10  1  0  0  0  0 
 11  9  1  0  0  0  0 
 12 10  2  0  0  0  0 
 13 11  1  0  0  0  0 
 14 11  2  0  0  0  0 
 15 12  1  0  0  0  0 
 14 12  1  0  0  0  0 
 13 16  1  0  0  0  0 
 17 14  1  0  0  0  0 
 15 18  1  0  0  0  0 
 17 19  1  0  0  0  0 
M  END
> <Name>
2-Propenethioic acid, 3-(3,4,5-trimethoxyphenyl)-, O-ethyl ester

> <Source>
Chemidplus3DMolFile

> <Tox>
2.449

> <CAS>
117666-86-1

$$$$

  CDK

 19 19  0  0  0  0  0  0  0  0999 V2000
    5.1250   -3.8576   -3.6429 S   0  0  0  0  0  0  0  0  0  0  0  0
    5.1568   -3.3039   -2.0651 C   0  0  0  0  0  0  0  0  0  0  0  0
    6.2487   -3.3874   -1.2580 O   0  0  0  0  0  0  0  0  0  0  0  0
    4.0122   -2.6607   -1.3686 C   0  0  0  0  0  0  0  0  0  0  0  0
    7.5027   -3.9670   -1.6736 C   0  0  0  0  0  0  0  0  0  0  0  0
    4.0467   -2.2266   -0.0870 C   0  0  0  0  0  0  0  0  0  0  0  0
    8.4906   -3.8768   -0.5301 C   0  0  0  0  0  0  0  0  0  0  0  0
    2.9348   -1.6038    0.6137 C   0  0  0  0  0  0  0  0  0  0  0  0
    2.9180   -1.5734    2.0082 C   0  0  0  0  0  0  0  0  0  0  0  0
    1.8846   -1.0376   -0.1090 C   0  0  0  0  0  0  0  0  0  0  0  0
    1.8509   -0.9767    2.6799 C   0  0  0  0  0  0  0  0  0  0  0  0
    0.8176   -0.4410    0.5626 C   0  0  0  0  0  0  0  0  0  0  0  0
    1.8458   -0.9525    4.0420 O   0  0  0  0  0  0  0  0  0  0  0  0
    0.8008   -0.4105    1.9570 C   0  0  0  0  0  0  0  0  0  0  0  0
    1.2311   -2.0540    4.7076 C   0  0  0  0  0  0  0  0  0  0  0  0
   -0.2461    0.1764    2.6015 O   0  0  0  0  0  0  0  0  0  0  0  0
   -1.5421   -0.3693    2.3633 C   0  0  0  0  0  0  0  0  0  0  0  0
   -2.4048   -0.1436    3.5954 C   0  0  0  0  0  0  0  0  0  0  0  0
   -3.8006   -0.7142    3.4199 C   0  0  0  0  0  0  0  0  0  0  0  0
  1  2  2  0  0  0  0 
  3  2  1  0  0  0  0 
  4  2  1  0  0  0  0 
  3  5  1  0  0  0  0 
  6  4  2  0  0  0  0 
  5  7  1  0  0  0  0 
  8  6  1  0  0  0  0 
  8  9  2  0  0  0  0 
  8 10  1  0  0  0  0 
 11  9  1  0  0  0  0 
 12 10  2  0  0  0  0 
 13 11  1  0  0  0  0 
 14 11  2  0  0  0  0 
 14 12  1  0  0  0  0 
 13 15  1  0  0  0  0 
 16 14  1  0  0  0  0 
 16 17  1  0  0  0  0 
 17 18  1  0  0  0  0 
 18 19  1  0  0  0  0 
M  END
> <Name>
2-Propenethioic acid, 3-(3-methoxy-4-propoxyphenyl)-, O-ethyl ester

> <Source>
Chemidplus3DMolFile

> <Tox>
2.443

> <CAS>
117683-18-8

$$$$

  CDK

 20 21  0  0  0  0  0  0  0  0999 V2000
    3.6876    4.9000    0.0000 C   0  0  0  0  0  0  0  0  0  0  0  0
    2.4751    5.6000    0.0000 C   0  0  0  0  0  0  0  0  0  0  0  0
    4.9000    5.6000    0.0000 O   0  0  0  0  0  0  0  0  0  0  0  0
    3.6876    3.5000    0.0000 N   0  0  0  0  0  0  0  0  0  0  0  0
    1.2627    4.9000    0.0000 N   0  0  0  0  0  0  0  0  0  0  0  0
    4.9000    2.8000    0.0000 C   0  0  0  0  0  0  0  0  0  0  0  0
    4.2000    1.5876    0.0000 C   0  0  0  0  0  0  0  0  0  0  0  0
    6.1124    2.1000    0.0000 C   0  0  0  0  0  0  0  0  0  0  0  0
    5.6000    4.0124    0.0000 C   0  0  0  0  0  0  0  0  0  0  0  0
    2.8000    1.5876    0.0000 C   0  0  0  0  0  0  0  0  0  0  0  0
    7.3249    2.8000    0.0000 C   0  0  0  0  0  0  0  0  0  0  0  0
    6.1124    0.7000    0.0000 C   0  0  0  0  0  0  0  0  0  0  0  0
    2.1000    0.3751    0.0000 C   0  0  0  0  0  0  0  0  0  0  0  0
    2.1000    2.8000    0.0000 C   0  0  0  0  0  0  0  0  0  0  0  0
    8.5373    2.1000    0.0000 C   0  0  0  0  0  0  0  0  0  0  0  0
    7.3249    0.0000    0.0000 C   0  0  0  0  0  0  0  0  0  0  0  0
    0.7000    0.3751    0.0000 C   0  0  0  0  0  0  0  0  0  0  0  0
    0.7000    2.8000    0.0000 C   0  0  0  0  0  0  0  0  0  0  0  0
    8.5373    0.7000    0.0000 C   0  0  0  0  0  0  0  0  0  0  0  0
    0.0000    1.5876    0.0000 C   0  0  0  0  0  0  0  0  0  0  0  0
  1  2  1  0  0  0  0 
  1  3  2  0  0  0  0 
  1  4  1  0  0  0  0 
  2  5  1  0  0  0  0 
  4  6  1  0  0  0  0 
  6  7  1  0  0  0  0 
  6  8  1  0  0  0  0 
  6  9  1  0  0  0  0 
  7 10  1  0  0  0  0 
  8 11  1  0  0  0  0 
  8 12  2  0  0  0  0 
 10 13  1  0  0  0  0 
 10 14  2  0  0  0  0 
 11 15  2  0  0  0  0 
 16 12  1  0  0  0  0 
 13 17  2  0  0  0  0 
 18 14  1  0  0  0  0 
 15 19  1  0  0  0  0 
 19 16  2  0  0  0  0 
 17 20  1  0  0  0  0 
 20 18  2  0  0  0  0 
M  END
> <Name>
Acetamide, 2-amino-N-(1-methyl-1,2-diphenylethyl)-, (-)-

> <Source>
Name2DMolFile

> <Tox>
2.564

> <CAS>
118754-14-6

$$$$

  CDK

 31 33  0  0  0  0  0  0  0  0999 V2000
   -0.2594   -0.2759    0.5076 Cl  0  0  0  0  0  0  0  0  0  0  0  0
    0.4369    0.4719   -0.8687 C   0  0  0  0  0  0  0  0  0  0  0  0
   -0.5534    0.9338   -2.1887 S   0  0  0  0  0  0  0  0  0  0  0  0
    1.7620    0.7775   -1.0815 C   0  0  0  0  0  0  0  0  0  0  0  0
    0.7843    1.5566   -3.0744 C   0  0  0  0  0  0  0  0  0  0  0  0
    1.9352    1.3875   -2.3443 C   0  0  0  0  0  0  0  0  0  0  0  0
    0.6743    2.1571   -4.3644 C   0  0  0  0  0  0  0  0  0  0  0  0
    3.4100    1.9314   -3.0096 S   0  0  0  0  0  0  0  0  0  0  0  0
   -0.6123    2.3867   -4.8256 O   0  0  0  0  0  0  0  0  0  0  0  0
    1.7509    2.4974   -5.1021 C   0  0  0  0  0  0  0  0  0  0  0  0
    3.6579    3.1764   -2.3116 O   0  0  0  0  0  0  0  0  0  0  0  0
    4.2879    0.7865   -2.8758 O   0  0  0  0  0  0  0  0  0  0  0  0
    3.1049    2.2373   -4.6642 N   0  0  0  0  0  0  0  0  0  0  0  0
   -1.1151    3.6166   -4.4823 C   0  0  0  0  0  0  0  0  0  0  0  0
    1.5305    3.0964   -6.4284 C   0  0  0  0  0  0  0  0  0  0  0  0
    4.2651    2.6513   -5.4865 C   0  0  0  0  0  0  0  0  0  0  0  0
   -0.5528    4.4893   -3.8340 O   0  0  0  0  0  0  0  0  0  0  0  0
   -2.5178    3.7236   -5.0472 C   0  0  0  0  0  0  0  0  0  0  0  0
    1.4466    2.3704   -7.4150 O   0  0  0  0  0  0  0  0  0  0  0  0
    1.4458    4.4790   -6.3665 N   0  0  0  0  0  0  0  0  0  0  0  0
   -3.4366    4.5928   -4.1916 C   0  0  0  0  0  0  0  0  0  0  0  0
    1.2406    5.3779   -7.4415 C   0  0  0  0  0  0  0  0  0  0  0  0
   -3.5625    4.0894   -2.7698 C   0  0  0  0  0  0  0  0  0  0  0  0
    1.1898    6.6915   -7.1617 N   0  0  0  0  0  0  0  0  0  0  0  0
    1.1077    4.8260   -8.6973 C   0  0  0  0  0  0  0  0  0  0  0  0
   -3.7722    5.1563   -1.9422 O   0  0  0  0  0  0  0  0  0  0  0  0
   -3.4949    2.9177   -2.4253 O   0  0  0  0  0  0  0  0  0  0  0  0
    0.9914    7.5101   -8.2192 C   0  0  0  0  0  0  0  0  0  0  0  0
    0.9051    5.7000   -9.7596 C   0  0  0  0  0  0  0  0  0  0  0  0
   -3.9221    4.8401   -0.5544 C   0  0  0  0  0  0  0  0  0  0  0  0
    0.8447    7.0691   -9.5244 C   0  0  0  0  0  0  0  0  0  0  0  0
  1  2  1  0  0  0  0 
  3  2  1  0  0  0  0 
  4  2  2  0  0  0  0 
  3  5  1  0  0  0  0 
  6  4  1  0  0  0  0 
  6  5  2  0  0  0  0 
  5  7  1  0  0  0  0 
  8  6  1  0  0  0  0 
  9  7  1  0  0  0  0 
 10  7  2  0  0  0  0 
  8 11  2  0  0  0  0 
  8 12  2  0  0  0  0 
  8 13  1  0  0  0  0 
  9 14  1  0  0  0  0 
 13 10  1  0  0  0  0 
 10 15  1  0  0  0  0 
 13 16  1  0  0  0  0 
 17 14  2  0  0  0  0 
 14 18  1  0  0  0  0 
 19 15  2  0  0  0  0 
 20 15  1  0  0  0  0 
 18 21  1  0  0  0  0 
 20 22  1  0  0  0  0 
 21 23  1  0  0  0  0 
 24 22  1  0  0  0  0 
 22 25  2  0  0  0  0 
 26 23  1  0  0  0  0 
 27 23  2  0  0  0  0 
 24 28  2  0  0  0  0 
 25 29  1  0  0  0  0 
 26 30  1  0  0  0  0 
 28 31  1  0  0  0  0 
 29 31  2  0  0  0  0 
M  END
> <Name>
Butanedioic acid, 6-chloro-2-methyl-3-((2-pyridinylamino)carbonyl)-2H-thieno(2,3-e)-1,2-thiazin-4-yl methyl ester, S,S-dioxide

> <Source>
Chemidplus3DMolFile

> <Tox>
4.811

> <CAS>
123252-98-2

$$$$

  CDK

 25 28  0  0  0  0  0  0  0  0999 V2000
    5.7273   -2.0466    1.1733 O   0  0  0  0  0  0  0  0  0  0  0  0
    6.7581   -2.2717    2.1271 C   0  0  0  0  0  0  0  0  0  0  0  0
    4.5844   -2.7905    1.3138 C   0  0  0  0  0  0  0  0  0  0  0  0
    7.9423   -1.3578    1.8319 C   0  0  0  0  0  0  0  0  0  0  0  0
    4.5746   -3.6530    2.3475 N   0  0  0  0  0  0  0  0  0  0  0  0
    3.5260   -2.6331    0.4233 C   0  0  0  0  0  0  0  0  0  0  0  0
    8.5484   -1.6240    0.4753 C   0  0  0  0  0  0  0  0  0  0  0  0
    3.4462   -4.3710    2.4667 C   0  0  0  0  0  0  0  0  0  0  0  0
    2.3997   -3.4405    0.6514 C   0  0  0  0  0  0  0  0  0  0  0  0
    3.5599   -1.7252   -0.6493 C   0  0  0  0  0  0  0  0  0  0  0  0
    9.5696   -2.5536    0.3580 C   0  0  0  0  0  0  0  0  0  0  0  0
    8.0731   -0.9338   -0.6285 C   0  0  0  0  0  0  0  0  0  0  0  0
    2.3567   -4.3121    1.6742 N   0  0  0  0  0  0  0  0  0  0  0  0
    1.3203   -3.3111   -0.2191 C   0  0  0  0  0  0  0  0  0  0  0  0
    2.4671   -1.6165   -1.5037 C   0  0  0  0  0  0  0  0  0  0  0  0
   10.1300   -2.7995   -0.8955 C   0  0  0  0  0  0  0  0  0  0  0  0
    8.6333   -1.1797   -1.8820 C   0  0  0  0  0  0  0  0  0  0  0  0
    1.3462   -2.4105   -1.2880 C   0  0  0  0  0  0  0  0  0  0  0  0
    9.6618   -2.1125   -2.0155 C   0  0  0  0  0  0  0  0  0  0  0  0
   10.2425   -2.3682   -3.3159 C   0  0  0  0  0  0  0  0  0  0  0  0
   11.3378   -1.6214   -3.7497 C   0  0  0  0  0  0  0  0  0  0  0  0
    9.7070   -3.3616   -4.1355 C   0  0  0  0  0  0  0  0  0  0  0  0
   11.8977   -1.8679   -5.0033 C   0  0  0  0  0  0  0  0  0  0  0  0
   10.2669   -3.6083   -5.3891 C   0  0  0  0  0  0  0  0  0  0  0  0
   11.3622   -2.8614   -5.8229 C   0  0  0  0  0  0  0  0  0  0  0  0
  1  2  1  0  0  0  0 
  1  3  1  0  0  0  0 
  4  2  1  0  0  0  0 
  5  3  2  0  0  0  0 
  6  3  1  0  0  0  0 
  4  7  1  0  0  0  0 
  5  8  1  0  0  0  0 
  6  9  1  0  0  0  0 
  6 10  2  0  0  0  0 
  7 11  2  0  0  0  0 
  7 12  1  0  0  0  0 
 13  8  2  0  0  0  0 
 13  9  1  0  0  0  0 
  9 14  2  0  0  0  0 
 10 15  1  0  0  0  0 
 11 16  1  0  0  0  0 
 12 17  2  0  0  0  0 
 14 18  1  0  0  0  0 
 15 18  2  0  0  0  0 
 19 16  2  0  0  0  0 
 19 17  1  0  0  0  0 
 19 20  1  0  0  0  0 
 20 21  2  0  0  0  0 
 20 22  1  0  0  0  0 
 21 23  1  0  0  0  0 
 22 24  2  0  0  0  0 
 23 25  2  0  0  0  0 
 24 25  1  0  0  0  0 
M  END
> <Name>
Quinazoline, 4-(2-(1,1'-biphenyl)-4-ylethoxy)-

> <Source>
Chemidplus3DMolFile

> <Tox>
2.453

> <CAS>
124428-11-1

$$$$

  CDK

 28 31  0  0  0  0  0  0  0  0999 V2000
    4.8150    1.7644   -1.9579 S   0  0  0  0  0  0  0  0  0  0  0  0
    4.1268    0.9116   -2.9183 O   0  0  0  0  0  0  0  0  0  0  0  0
    6.1098    2.3378   -2.2978 O   0  0  0  0  0  0  0  0  0  0  0  0
    5.0442    0.8803   -0.4699 C   0  0  0  0  0  0  0  0  0  0  0  0
    3.6954    3.1037   -1.6494 C   0  0  0  0  0  0  0  0  0  0  0  0
    4.2015   -0.1871   -0.1556 C   0  0  0  0  0  0  0  0  0  0  0  0
    6.0655    1.2407    0.4035 C   0  0  0  0  0  0  0  0  0  0  0  0
    4.2044    4.3250   -1.2515 C   0  0  0  0  0  0  0  0  0  0  0  0
    2.3393    2.8953   -1.8122 C   0  0  0  0  0  0  0  0  0  0  0  0
    4.3629   -0.9044    1.0416 C   0  0  0  0  0  0  0  0  0  0  0  0
    6.2536    0.5242    1.5832 C   0  0  0  0  0  0  0  0  0  0  0  0
    3.3234    5.3786   -1.0072 C   0  0  0  0  0  0  0  0  0  0  0  0
    1.4583    3.9489   -1.5681 C   0  0  0  0  0  0  0  0  0  0  0  0
    3.4423   -2.0507    1.3786 C   0  0  0  0  0  0  0  0  0  0  0  0
    5.4189   -0.5548    1.8929 C   0  0  0  0  0  0  0  0  0  0  0  0
    1.9504    5.1905   -1.1655 C   0  0  0  0  0  0  0  0  0  0  0  0
    2.0534   -1.7094    1.1598 N   0  0  0  0  0  0  0  0  0  0  0  0
    3.6308   -2.4990    2.8322 C   0  0  0  0  0  0  0  0  0  0  0  0
    5.7069   -1.2069    3.0623 O   0  0  0  0  0  0  0  0  0  0  0  0
    1.3738   -0.7395    1.9854 C   0  0  0  0  0  0  0  0  0  0  0  0
    1.1990   -2.3408    0.2590 C   0  0  0  0  0  0  0  0  0  0  0  0
    3.0718   -3.7993    3.0049 O   0  0  0  0  0  0  0  0  0  0  0  0
    5.1187   -2.5091    3.2351 C   0  0  0  0  0  0  0  0  0  0  0  0
    0.1118   -0.4435    1.2003 C   0  0  0  0  0  0  0  0  0  0  0  0
    1.4581   -3.2396   -0.5273 O   0  0  0  0  0  0  0  0  0  0  0  0
   -0.1747   -1.7461    0.4630 C   0  0  0  0  0  0  0  0  0  0  0  0
    5.2411   -2.8189    4.7376 C   0  0  0  0  0  0  0  0  0  0  0  0
    5.9574   -3.5500    2.4714 C   0  0  0  0  0  0  0  0  0  0  0  0
  1  2  2  0  0  0  0 
  1  3  2  0  0  0  0 
  1  4  1  0  0  0  0 
  1  5  1  0  0  0  0 
  6  4  2  0  0  0  0 
  4  7  1  0  0  0  0 
  5  8  2  0  0  0  0 
  5  9  1  0  0  0  0 
 10  6  1  0  0  0  0 
 11  7  2  0  0  0  0 
  8 12  1  0  0  0  0 
  9 13  2  0  0  0  0 
 14 10  1  0  0  0  0 
 10 15  2  0  0  0  0 
 15 11  1  0  0  0  0 
 12 16  2  0  0  0  0 
 13 16  1  0  0  0  0 
 17 14  1  0  0  0  0 
 14 18  1  0  0  0  0 
 19 15  1  0  0  0  0 
 17 20  1  0  0  0  0 
 17 21  1  0  0  0  0 
 22 18  1  0  0  0  0 
 18 23  1  0  0  0  0 
 19 23  1  0  0  0  0 
 20 24  1  0  0  0  0 
 25 21  2  0  0  0  0 
 21 26  1  0  0  0  0 
 23 27  1  0  0  0  0 
 23 28  1  0  0  0  0 
 24 26  1  0  0  0  0 
M  END
> <Name>
2-Pyrrolidinone, 1-(3,4-dihydro-3-hydroxy-2,2-dimethyl-6-(phenylsulfonyl)-2H-1-benzopyran-4-yl)-, trans-

> <Source>
Chemidplus3DMolFile

> <Tox>
2.303

> <CAS>
128148-93-6

$$$$

  CDK

 20 21  0  0  0  0  0  0  0  0999 V2000
    1.3997    2.0236   -1.1299 O   0  0  0  0  0  0  0  0  0  0  0  0
    1.2690    0.9112   -1.6343 C   0  0  0  0  0  0  0  0  0  0  0  0
    1.0349   -0.2633   -0.9331 N   0  0  0  0  0  0  0  0  0  0  0  0
    1.3576    0.6578   -3.1231 C   0  0  0  0  0  0  0  0  0  0  0  0
    0.9148   -0.3167    0.5062 C   0  0  0  0  0  0  0  0  0  0  0  0
    1.6110    1.8954   -3.8158 N   0  0  0  0  0  0  0  0  0  0  0  0
    0.7498   -1.7999    0.9566 C   0  0  0  0  0  0  0  0  0  0  0  0
   -0.2542    0.5406    1.0185 C   0  0  0  0  0  0  0  0  0  0  0  0
    2.2600    0.2089    1.0572 C   0  0  0  0  0  0  0  0  0  0  0  0
   -0.5054   -2.4973    0.4759 C   0  0  0  0  0  0  0  0  0  0  0  0
   -0.1318    1.1421    2.2461 C   0  0  0  0  0  0  0  0  0  0  0  0
   -1.3671    0.6660    0.2250 C   0  0  0  0  0  0  0  0  0  0  0  0
   -1.6483   -2.4413    1.2539 C   0  0  0  0  0  0  0  0  0  0  0  0
   -0.4814   -3.1743   -0.7306 C   0  0  0  0  0  0  0  0  0  0  0  0
   -1.1921    1.9201    2.7109 C   0  0  0  0  0  0  0  0  0  0  0  0
   -2.4273    1.4441    0.6899 C   0  0  0  0  0  0  0  0  0  0  0  0
   -2.8047   -3.0835    0.8112 C   0  0  0  0  0  0  0  0  0  0  0  0
   -1.6379   -3.8164   -1.1733 C   0  0  0  0  0  0  0  0  0  0  0  0
   -2.3398    2.0711    1.9329 C   0  0  0  0  0  0  0  0  0  0  0  0
   -2.7995   -3.7709   -0.4024 C   0  0  0  0  0  0  0  0  0  0  0  0
  1  2  2  0  0  0  0 
  3  2  1  0  0  0  0 
  2  4  1  0  0  0  0 
  3  5  1  0  0  0  0 
  6  4  1  0  0  0  0 
  5  7  1  0  0  0  0 
  5  8  1  0  0  0  0 
  5  9  1  0  0  0  0 
  7 10  1  0  0  0  0 
  8 11  2  0  0  0  0 
  8 12  1  0  0  0  0 
 10 13  2  0  0  0  0 
 10 14  1  0  0  0  0 
 11 15  1  0  0  0  0 
 12 16  2  0  0  0  0 
 13 17  1  0  0  0  0 
 14 18  2  0  0  0  0 
 15 19  2  0  0  0  0 
 16 19  1  0  0  0  0 
 17 20  2  0  0  0  0 
 18 20  1  0  0  0  0 
M  END
> <Name>
Acetamide, 2-amino-N-(1-methyl-1,2-diphenylethyl)-, (+-)-

> <Source>
Chemidplus3DMolFile

> <Tox>
2.436

> <CAS>
128298-28-2

$$$$

  CDK

 18 19  0  0  0  0  0  0  0  0999 V2000
   -4.3057   -4.7859   -2.6646 Cl  0  0  0  0  0  0  0  0  0  0  0  0
   -4.3314   -4.8303   -0.9385 C   0  0  0  0  0  0  0  0  0  0  0  0
   -3.1876   -4.5793   -0.1835 C   0  0  0  0  0  0  0  0  0  0  0  0
   -5.5352   -5.1263   -0.2990 C   0  0  0  0  0  0  0  0  0  0  0  0
   -1.8919   -4.2607   -0.8718 C   0  0  0  0  0  0  0  0  0  0  0  0
   -3.2422   -4.6228    1.2080 C   0  0  0  0  0  0  0  0  0  0  0  0
   -5.5926   -5.1706    1.0939 C   0  0  0  0  0  0  0  0  0  0  0  0
   -1.7286   -2.8248   -1.0934 N   0  0  0  0  0  0  0  0  0  0  0  0
   -1.8476   -4.3184    2.1798 Cl  0  0  0  0  0  0  0  0  0  0  0  0
   -4.4460   -4.9188    1.8474 C   0  0  0  0  0  0  0  0  0  0  0  0
   -0.5746   -2.3199   -1.7255 C   0  0  0  0  0  0  0  0  0  0  0  0
   -2.7152   -1.9379   -0.6785 C   0  0  0  0  0  0  0  0  0  0  0  0
    0.4294   -3.0277   -2.1643 N   0  0  0  0  0  0  0  0  0  0  0  0
   -0.4534   -0.8289   -1.9313 C   0  0  0  0  0  0  0  0  0  0  0  0
   -2.6289   -0.6112   -0.8502 C   0  0  0  0  0  0  0  0  0  0  0  0
    1.4157   -2.3311   -2.7304 C   0  0  0  0  0  0  0  0  0  0  0  0
   -1.4601   -0.0562   -1.4964 C   0  0  0  0  0  0  0  0  0  0  0  0
    2.2845   -1.7427   -3.2263 N   0  0  0  0  0  0  0  0  0  0  0  0
  1  2  1  0  0  0  0 
  3  2  2  0  0  0  0 
  2  4  1  0  0  0  0 
  5  3  1  0  0  0  0 
  3  6  1  0  0  0  0 
  4  7  2  0  0  0  0 
  8  5  1  0  0  0  0 
  9  6  1  0  0  0  0 
  6 10  2  0  0  0  0 
 10  7  1  0  0  0  0 
  8 11  1  0  0  0  0 
  8 12  1  0  0  0  0 
 13 11  2  0  0  0  0 
 11 14  1  0  0  0  0 
 12 15  2  0  0  0  0 
 13 16  1  0  0  0  0 
 14 17  2  0  0  0  0 
 15 17  1  0  0  0  0 
 18 16  3  0  0  0  0 
M  END
> <Name>
Cyanamide, (1-(2,6-dichlorophenyl)-2(1H)-pyridinylidene)-

> <Source>
Chemidplus3DMolFile

> <Tox>
2.745

> <CAS>
135810-36-5

$$$$

  CDK

 31 35  0  0  0  0  0  0  0  0999 V2000
    0.7264   -3.7463  -17.9907 F   0  0  0  0  0  0  0  0  0  0  0  0
    1.0314   -3.7395  -16.6856 C   0  0  0  0  0  0  0  0  0  0  0  0
    2.3343   -3.4212  -16.2885 C   0  0  0  0  0  0  0  0  0  0  0  0
    0.0410   -4.0503  -15.7478 C   0  0  0  0  0  0  0  0  0  0  0  0
    2.5754   -3.4343  -14.9178 C   0  0  0  0  0  0  0  0  0  0  0  0
    0.3196   -4.0537  -14.3736 C   0  0  0  0  0  0  0  0  0  0  0  0
    3.7586   -3.1588  -14.3040 O   0  0  0  0  0  0  0  0  0  0  0  0
    1.6220   -3.7362  -13.9611 C   0  0  0  0  0  0  0  0  0  0  0  0
    3.6030   -3.2751  -12.9281 N   0  0  0  0  0  0  0  0  0  0  0  0
    2.3281   -3.6183  -12.7553 C   0  0  0  0  0  0  0  0  0  0  0  0
    1.8035   -3.8314  -11.3532 C   0  0  0  0  0  0  0  0  0  0  0  0
    2.5052   -4.9901  -10.6262 C   0  0  0  0  0  0  0  0  0  0  0  0
    1.8723   -2.5586  -10.4937 C   0  0  0  0  0  0  0  0  0  0  0  0
    1.9664   -5.1603   -9.2035 C   0  0  0  0  0  0  0  0  0  0  0  0
    1.3563   -2.8176   -9.0760 C   0  0  0  0  0  0  0  0  0  0  0  0
    2.0941   -3.9146   -8.4352 N   0  0  0  0  0  0  0  0  0  0  0  0
    1.6283   -4.1106   -7.0624 C   0  0  0  0  0  0  0  0  0  0  0  0
    1.8172   -2.8288   -6.2635 C   0  0  0  0  0  0  0  0  0  0  0  0
    1.3405   -3.0034   -4.8510 C   0  0  0  0  0  0  0  0  0  0  0  0
    2.3682   -3.4683   -3.8682 C   0  0  0  0  0  0  0  0  0  0  0  0
    0.0961   -2.7674   -4.3922 C   0  0  0  0  0  0  0  0  0  0  0  0
    3.4986   -3.7662   -4.2529 O   0  0  0  0  0  0  0  0  0  0  0  0
    1.9320   -3.5439   -2.5429 N   0  0  0  0  0  0  0  0  0  0  0  0
   -0.2809   -2.9024   -3.0789 N   0  0  0  0  0  0  0  0  0  0  0  0
   -1.0391   -2.3405   -5.2857 C   0  0  0  0  0  0  0  0  0  0  0  0
    2.8986   -4.0348   -1.5562 C   0  0  0  0  0  0  0  0  0  0  0  0
    0.6114   -3.2812   -2.2177 C   0  0  0  0  0  0  0  0  0  0  0  0
    2.5467   -3.7080   -0.1177 C   0  0  0  0  0  0  0  0  0  0  0  0
    0.1819   -3.3682   -0.7570 C   0  0  0  0  0  0  0  0  0  0  0  0
    1.1225   -4.1457    0.1434 C   0  0  0  0  0  0  0  0  0  0  0  0
   -1.1033   -3.9699   -0.7045 O   0  0  0  0  0  0  0  0  0  0  0  0
  1  2  1  0  0  0  0 
  3  2  2  0  0  0  0 
  4  2  1  0  0  0  0 
  5  3  1  0  0  0  0 
  6  4  2  0  0  0  0 
  7  5  1  0  0  0  0 
  8  5  2  0  0  0  0 
  8  6  1  0  0  0  0 
  7  9  1  0  0  0  0 
 10  8  1  0  0  0  0 
  9 10  2  0  0  0  0 
 11 10  1  0  0  0  0 
 11 12  1  0  0  0  0 
 11 13  1  0  0  0  0 
 12 14  1  0  0  0  0 
 13 15  1  0  0  0  0 
 16 14  1  0  0  0  0 
 16 15  1  0  0  0  0 
 16 17  1  0  0  0  0 
 17 18  1  0  0  0  0 
 18 19  1  0  0  0  0 
 19 20  1  0  0  0  0 
 19 21  2  0  0  0  0 
 22 20  2  0  0  0  0 
 23 20  1  0  0  0  0 
 24 21  1  0  0  0  0 
 21 25  1  0  0  0  0 
 23 26  1  0  0  0  0 
 23 27  1  0  0  0  0 
 24 27  2  0  0  0  0 
 26 28  1  0  0  0  0 
 29 27  1  0  0  0  0 
 28 30  1  0  0  0  0 
 31 29  1  0  0  0  0 
 29 30  1  0  0  0  0 
M  END
> <Name>
4H-Pyrido(2,1-a)pyrimidin-4-one, 6,7,8,9-tetrahydro-3-(2-(4-(6-fluro-1,2-benzisoxazol-3-yl)-1-piperidinyl)ethyl)-9-hydroxy-2-methyl-

> <Source>
Chemidplus3DMolFile

> <Tox>
3.817

> <CAS>
144598-75-4

$$$$

  CDK

 35 38  0  0  0  0  0  0  0  0999 V2000
    6.6831   -1.6782    9.0175 O   0  0  0  0  0  0  0  0  0  0  0  0
    6.1245   -1.7307   10.2582 C   0  0  0  0  0  0  0  0  0  0  0  0
    6.8246   -2.9244    8.3772 C   0  0  0  0  0  0  0  0  0  0  0  0
    4.7415   -1.6347   10.4019 C   0  0  0  0  0  0  0  0  0  0  0  0
    6.9425   -1.8846   11.3838 C   0  0  0  0  0  0  0  0  0  0  0  0
    6.4806   -3.9904    8.8793 O   0  0  0  0  0  0  0  0  0  0  0  0
    7.3970   -2.7710    7.1313 N   0  0  0  0  0  0  0  0  0  0  0  0
    4.2020   -1.6915   11.6807 C   0  0  0  0  0  0  0  0  0  0  0  0
    6.3860   -1.9403   12.6650 C   0  0  0  0  0  0  0  0  0  0  0  0
    7.6687   -3.8717    6.2364 C   0  0  0  0  0  0  0  0  0  0  0  0
    2.7520   -1.6430   12.0856 C   0  0  0  0  0  0  0  0  0  0  0  0
    5.0087   -1.8388   12.8110 C   0  0  0  0  0  0  0  0  0  0  0  0
    6.4974   -4.1676    5.3055 C   0  0  0  0  0  0  0  0  0  0  0  0
    2.8314   -1.7624   13.6589 C   0  0  0  0  0  0  0  0  0  0  0  0
    2.1116   -0.2711   11.8179 C   0  0  0  0  0  0  0  0  0  0  0  0
    1.9459   -2.7797   11.4536 C   0  0  0  0  0  0  0  0  0  0  0  0
    4.2697   -1.8588   13.9797 N   0  0  0  0  0  0  0  0  0  0  0  0
    6.1520   -2.9823    4.3992 C   0  0  0  0  0  0  0  0  0  0  0  0
    1.9462   -0.6560   14.0912 N   0  0  0  0  0  0  0  0  0  0  0  0
    2.1732    0.4434   13.1569 C   0  0  0  0  0  0  0  0  0  0  0  0
    4.7705   -2.3921   15.2233 C   0  0  0  0  0  0  0  0  0  0  0  0
    4.9660   -3.3073    3.4888 C   0  0  0  0  0  0  0  0  0  0  0  0
    2.1335   -0.2549   15.4749 C   0  0  0  0  0  0  0  0  0  0  0  0
    4.6001   -2.1140    2.6045 C   0  0  0  0  0  0  0  0  0  0  0  0
    3.4353   -2.4495    1.6705 C   0  0  0  0  0  0  0  0  0  0  0  0
    3.0526   -1.2437    0.8067 C   0  0  0  0  0  0  0  0  0  0  0  0
    1.9376   -1.5518   -0.1942 C   0  0  0  0  0  0  0  0  0  0  0  0
    0.6986   -1.9472    0.4725 N   0  0  0  0  0  0  0  0  0  0  0  0
    0.0215   -0.7773    1.0508 C   0  0  0  0  0  0  0  0  0  0  0  0
   -0.2015   -2.6342   -0.4653 C   0  0  0  0  0  0  0  0  0  0  0  0
   -1.2721   -1.2179    1.7450 C   0  0  0  0  0  0  0  0  0  0  0  0
   -1.4910   -3.0400    0.2572 C   0  0  0  0  0  0  0  0  0  0  0  0
   -2.1263   -1.8800    0.8058 O   0  0  0  0  0  0  0  0  0  0  0  0
   -2.0324   -0.0203    2.2985 C   0  0  0  0  0  0  0  0  0  0  0  0
   -2.4740   -3.6962   -0.7029 C   0  0  0  0  0  0  0  0  0  0  0  0
  1  2  1  0  0  0  0 
  1  3  1  0  0  0  0 
  4  2  2  0  0  0  0 
  2  5  1  0  0  0  0 
  6  3  2  0  0  0  0 
  7  3  1  0  0  0  0 
  8  4  1  0  0  0  0 
  9  5  2  0  0  0  0 
  7 10  1  0  0  0  0 
 11  8  1  0  0  0  0 
  8 12  2  0  0  0  0 
 12  9  1  0  0  0  0 
 10 13  1  0  0  0  0 
 11 14  1  0  0  0  0 
 11 15  1  0  0  0  0 
 11 16  1  0  0  0  0 
 17 12  1  0  0  0  0 
 18 13  1  0  0  0  0 
 19 14  1  0  0  0  0 
 17 14  1  0  0  0  0 
 15 20  1  0  0  0  0 
 17 21  1  0  0  0  0 
 22 18  1  0  0  0  0 
 19 20  1  0  0  0  0 
 19 23  1  0  0  0  0 
 24 22  1  0  0  0  0 
 25 24  1  0  0  0  0 
 26 25  1  0  0  0  0 
 27 26  1  0  0  0  0 
 28 27  1  0  0  0  0 
 28 29  1  0  0  0  0 
 28 30  1  0  0  0  0 
 29 31  1  0  0  0  0 
 30 32  1  0  0  0  0 
 33 31  1  0  0  0  0 
 31 34  1  0  0  0  0 
 33 32  1  0  0  0  0 
 32 35  1  0  0  0  0 
M  END
> <Name>
Carbamic acid, (8-(2,6-dimethyl-4-morpholinyl)octyl)-, 1,2,3,3a,8,8a-hexahydro-1,3a,8-trimethylpyrrolo(2,3-b)indol-5-yl ester, (3aS-(3a-alpha,5(2R*,6S*),8a-alpha))-

> <Source>
Chemidplus3DMolFile

> <Tox>
3.939

> <CAS>
154619-51-9

$$$$

  CDK

 33 37  0  0  0  0  0  0  0  0999 V2000
   -4.0233    4.4775    2.9211 O   0  0  0  0  0  0  0  0  0  0  0  0
   -3.5383    3.9076    1.7125 C   0  0  0  0  0  0  0  0  0  0  0  0
   -4.4810    5.7676    2.8558 C   0  0  0  0  0  0  0  0  0  0  0  0
   -3.7602    2.4042    1.7577 C   0  0  0  0  0  0  0  0  0  0  0  0
   -5.4887    6.1837    3.7183 C   0  0  0  0  0  0  0  0  0  0  0  0
   -3.9341    6.6464    1.9279 C   0  0  0  0  0  0  0  0  0  0  0  0
   -3.2906    1.7755    0.5233 N   0  0  0  0  0  0  0  0  0  0  0  0
   -5.9559    7.4964    3.6520 C   0  0  0  0  0  0  0  0  0  0  0  0
   -4.4011    7.9591    1.8616 C   0  0  0  0  0  0  0  0  0  0  0  0
   -1.8465    1.9900    0.3544 C   0  0  0  0  0  0  0  0  0  0  0  0
   -3.6190    0.3430    0.5187 C   0  0  0  0  0  0  0  0  0  0  0  0
   -5.4121    8.3840    2.7237 C   0  0  0  0  0  0  0  0  0  0  0  0
   -1.3479    1.3807   -0.9567 C   0  0  0  0  0  0  0  0  0  0  0  0
   -3.1784   -0.3201   -0.7873 C   0  0  0  0  0  0  0  0  0  0  0  0
   -5.9106    9.7876    2.6531 C   0  0  0  0  0  0  0  0  0  0  0  0
   -1.6921   -0.1018   -1.0459 C   0  0  0  0  0  0  0  0  0  0  0  0
   -4.8078   10.6130    3.0898 O   0  0  0  0  0  0  0  0  0  0  0  0
   -6.5067   10.1093    1.2896 C   0  0  0  0  0  0  0  0  0  0  0  0
   -4.3818   11.6325    2.2890 C   0  0  0  0  0  0  0  0  0  0  0  0
   -6.0441   11.1194    0.5392 C   0  0  0  0  0  0  0  0  0  0  0  0
   -7.6405    9.3285    0.8182 C   0  0  0  0  0  0  0  0  0  0  0  0
   -4.9396   11.9201    1.0436 C   0  0  0  0  0  0  0  0  0  0  0  0
   -3.3206   12.3996    2.7778 C   0  0  0  0  0  0  0  0  0  0  0  0
   -7.4284    8.1945    0.0349 C   0  0  0  0  0  0  0  0  0  0  0  0
   -8.9386    9.7155    1.1498 C   0  0  0  0  0  0  0  0  0  0  0  0
   -4.4287   12.9841    0.2896 C   0  0  0  0  0  0  0  0  0  0  0  0
   -2.8157   13.4575    2.0234 C   0  0  0  0  0  0  0  0  0  0  0  0
   -8.5156    7.4467   -0.4173 C   0  0  0  0  0  0  0  0  0  0  0  0
  -10.0257    8.9675    0.6977 C   0  0  0  0  0  0  0  0  0  0  0  0
   -3.3696   13.7498    0.7793 C   0  0  0  0  0  0  0  0  0  0  0  0
   -9.8142    7.8332   -0.0859 C   0  0  0  0  0  0  0  0  0  0  0  0
  -10.8746    7.1035   -0.5275 O   0  0  0  0  0  0  0  0  0  0  0  0
  -12.1751    7.5548   -0.1518 C   0  0  0  0  0  0  0  0  0  0  0  0
  1  2  1  0  0  0  0 
  1  3  1  0  0  0  0 
  4  2  1  0  0  0  0 
  3  5  2  0  0  0  0 
  3  6  1  0  0  0  0 
  7  4  1  0  0  0  0 
  8  5  1  0  0  0  0 
  9  6  2  0  0  0  0 
  7 10  1  0  0  0  0 
  7 11  1  0  0  0  0 
 12  8  2  0  0  0  0 
 12  9  1  0  0  0  0 
 10 13  1  0  0  0  0 
 11 14  1  0  0  0  0 
 15 12  1  0  0  0  0 
 13 16  1  0  0  0  0 
 14 16  1  0  0  0  0 
 17 15  1  0  0  0  0 
 15 18  1  0  0  0  0 
 17 19  1  0  0  0  0 
 18 20  2  0  0  0  0 
 18 21  1  0  0  0  0 
 22 19  1  0  0  0  0 
 19 23  2  0  0  0  0 
 20 22  1  0  0  0  0 
 21 24  2  0  0  0  0 
 21 25  1  0  0  0  0 
 22 26  2  0  0  0  0 
 23 27  1  0  0  0  0 
 24 28  1  0  0  0  0 
 25 29  2  0  0  0  0 
 26 30  1  0  0  0  0 
 30 27  2  0  0  0  0 
 28 31  2  0  0  0  0 
 29 31  1  0  0  0  0 
 32 31  1  0  0  0  0 
 32 33  1  0  0  0  0 
M  END
> <Name>
Piperidine, 1-(2-(4-(3-(4-methoxyphenyl)-2H-1-benzopyran-2-yl)phenoxy)ethyl)-

> <Source>
Chemidplus3DMolFile

> <Tox>
1.946

> <CAS>
157173-60-9

$$$$

  CDK

 20 22  0  0  0  0  0  0  0  0999 V2000
    3.8226    1.2445   -2.1850 O   0  0  0  0  0  0  0  0  0  0  0  0
    5.0063    0.4469   -2.4509 C   0  0  0  0  0  0  0  0  0  0  0  0
    3.0243    0.4367   -1.4176 C   0  0  0  0  0  0  0  0  0  0  0  0
    5.0553   -0.7293   -1.4614 C   0  0  0  0  0  0  0  0  0  0  0  0
    4.9647   -0.0093   -3.9072 C   0  0  0  0  0  0  0  0  0  0  0  0
    3.6523   -0.7224   -0.9919 C   0  0  0  0  0  0  0  0  0  0  0  0
    1.7175    0.7278   -1.0763 C   0  0  0  0  0  0  0  0  0  0  0  0
    2.9864   -1.6405   -0.2003 C   0  0  0  0  0  0  0  0  0  0  0  0
    1.0303   -0.1944   -0.2851 C   0  0  0  0  0  0  0  0  0  0  0  0
    1.6605   -1.3720    0.1496 C   0  0  0  0  0  0  0  0  0  0  0  0
    0.9226   -2.3255    0.9633 C   0  0  0  0  0  0  0  0  0  0  0  0
   -0.2649   -2.1093    1.2805 O   0  0  0  0  0  0  0  0  0  0  0  0
    1.6074   -3.6185    1.4433 C   0  0  0  0  0  0  0  0  0  0  0  0
    0.7048   -4.4977    2.3120 C   0  0  0  0  0  0  0  0  0  0  0  0
    1.4148   -5.7465    2.7672 C   0  0  0  0  0  0  0  0  0  0  0  0
    1.3505   -6.8908    1.9856 C   0  0  0  0  0  0  0  0  0  0  0  0
    2.1222   -5.7325    3.9605 C   0  0  0  0  0  0  0  0  0  0  0  0
    2.0078   -8.0468    2.4068 C   0  0  0  0  0  0  0  0  0  0  0  0
    2.7795   -6.8885    4.3815 C   0  0  0  0  0  0  0  0  0  0  0  0
    2.7223   -8.0456    3.6046 C   0  0  0  0  0  0  0  0  0  0  0  0
  1  2  1  0  0  0  0 
  1  3  1  0  0  0  0 
  2  4  1  0  0  0  0 
  2  5  1  0  0  0  0 
  6  3  2  0  0  0  0 
  3  7  1  0  0  0  0 
  4  6  1  0  0  0  0 
  6  8  1  0  0  0  0 
  7  9  2  0  0  0  0 
  8 10  2  0  0  0  0 
 10  9  1  0  0  0  0 
 10 11  1  0  0  0  0 
 12 11  2  0  0  0  0 
 13 11  1  0  0  0  0 
 13 14  1  0  0  0  0 
 14 15  1  0  0  0  0 
 15 16  2  0  0  0  0 
 15 17  1  0  0  0  0 
 16 18  1  0  0  0  0 
 17 19  2  0  0  0  0 
 18 20  2  0  0  0  0 
 19 20  1  0  0  0  0 
M  END
> <Name>
1-Propanone, 1-(2,3-dihydro-2-methyl-5-benzofuranyl)-3-phenyl-

> <Source>
Chemidplus3DMolFile

> <Tox>
2.093

> <CAS>
159264-96-7

$$$$

  CDK

 23 25  0  0  0  0  0  0  0  0999 V2000
    2.2205   -4.7716   -3.1682 O   0  0  0  0  0  0  0  0  0  0  0  0
    1.8318   -3.6866   -2.7447 C   0  0  0  0  0  0  0  0  0  0  0  0
    1.0176   -2.7756   -3.4688 N   0  0  0  0  0  0  0  0  0  0  0  0
    2.1502   -3.1852   -1.4471 C   0  0  0  0  0  0  0  0  0  0  0  0
    0.5392   -1.4948   -3.0113 C   0  0  0  0  0  0  0  0  0  0  0  0
    0.6244   -3.1777   -4.8152 C   0  0  0  0  0  0  0  0  0  0  0  0
    2.8978   -3.7346   -0.4454 N   0  0  0  0  0  0  0  0  0  0  0  0
    1.7284   -1.9799   -0.9558 C   0  0  0  0  0  0  0  0  0  0  0  0
   -0.1682   -0.7712   -3.7215 O   0  0  0  0  0  0  0  0  0  0  0  0
    0.9325   -1.1214   -1.7017 N   0  0  0  0  0  0  0  0  0  0  0  0
    3.5764   -5.0084   -0.4527 C   0  0  0  0  0  0  0  0  0  0  0  0
    2.8910   -2.8412    0.5945 C   0  0  0  0  0  0  0  0  0  0  0  0
    2.1878   -1.7630    0.3155 N   0  0  0  0  0  0  0  0  0  0  0  0
    0.5080    0.1526   -1.1346 C   0  0  0  0  0  0  0  0  0  0  0  0
    5.0032   -4.8911   -0.9810 C   0  0  0  0  0  0  0  0  0  0  0  0
    5.6598   -6.1919   -0.9476 N   0  0  0  0  0  0  0  0  0  0  0  0
    6.3451   -6.6204    0.1892 C   0  0  0  0  0  0  0  0  0  0  0  0
    5.5679   -7.0376   -2.1308 C   0  0  0  0  0  0  0  0  0  0  0  0
    6.4281   -5.7991    1.3234 C   0  0  0  0  0  0  0  0  0  0  0  0
    6.9621   -7.8799    0.2181 C   0  0  0  0  0  0  0  0  0  0  0  0
    7.1124   -6.2276    2.4608 C   0  0  0  0  0  0  0  0  0  0  0  0
    7.6465   -8.3084    1.3555 C   0  0  0  0  0  0  0  0  0  0  0  0
    7.7216   -7.4823    2.4769 C   0  0  0  0  0  0  0  0  0  0  0  0
  1  2  2  0  0  0  0 
  3  2  1  0  0  0  0 
  4  2  1  0  0  0  0 
  3  5  1  0  0  0  0 
  3  6  1  0  0  0  0 
  7  4  1  0  0  0  0 
  4  8  2  0  0  0  0 
  9  5  2  0  0  0  0 
 10  5  1  0  0  0  0 
  7 11  1  0  0  0  0 
  7 12  1  0  0  0  0 
 10  8  1  0  0  0  0 
 13  8  1  0  0  0  0 
 10 14  1  0  0  0  0 
 11 15  1  0  0  0  0 
 13 12  2  0  0  0  0 
 16 15  1  0  0  0  0 
 16 17  1  0  0  0  0 
 16 18  1  0  0  0  0 
 17 19  2  0  0  0  0 
 17 20  1  0  0  0  0 
 19 21  1  0  0  0  0 
 20 22  2  0  0  0  0 
 21 23  2  0  0  0  0 
 22 23  1  0  0  0  0 
M  END
> <Name>
1H-Purine-2,6-dione, 3,7-dihydro-1,3-dimethyl-7-(2-(methylphenylamino)ethyl)-

> <Source>
Chemidplus3DMolFile

> <Tox>
2.037

> <CAS>
161559-33-7

$$$$

  CDK

 14 15  0  0  0  0  0  0  0  0999 V2000
    0.6643   -2.0239    1.7856 O   0  0  0  0  0  0  0  0  0  0  0  0
    1.5207   -3.1932    1.8788 C   0  0  0  0  0  0  0  0  0  0  0  0
    0.2010   -2.0484    0.4686 C   0  0  0  0  0  0  0  0  0  0  0  0
    1.0706   -4.1730    0.7799 C   0  0  0  0  0  0  0  0  0  0  0  0
    0.4647   -3.2418   -0.1334 N   0  0  0  0  0  0  0  0  0  0  0  0
   -0.4332   -0.9932   -0.0510 C   0  0  0  0  0  0  0  0  0  0  0  0
    0.0173   -5.1583    1.2875 C   0  0  0  0  0  0  0  0  0  0  0  0
    2.2405   -4.9007    0.1323 C   0  0  0  0  0  0  0  0  0  0  0  0
   -0.9340   -1.0847   -1.4626 C   0  0  0  0  0  0  0  0  0  0  0  0
   -0.6544    0.2295    0.6942 C   0  0  0  0  0  0  0  0  0  0  0  0
   -0.7930   -2.0768   -2.1686 O   0  0  0  0  0  0  0  0  0  0  0  0
   -1.6325    0.1216   -1.9878 C   0  0  0  0  0  0  0  0  0  0  0  0
   -1.2952    1.2669    0.1392 C   0  0  0  0  0  0  0  0  0  0  0  0
   -1.7862    1.2053   -1.2159 C   0  0  0  0  0  0  0  0  0  0  0  0
  1  2  1  0  0  0  0 
  1  3  1  0  0  0  0 
  4  2  1  0  0  0  0 
  5  3  1  0  0  0  0 
  3  6  2  0  0  0  0 
  5  4  1  0  0  0  0 
  4  7  1  0  0  0  0 
  4  8  1  0  0  0  0 
  6  9  1  0  0  0  0 
  6 10  1  0  0  0  0 
 11  9  2  0  0  0  0 
  9 12  1  0  0  0  0 
 10 13  2  0  0  0  0 
 12 14  2  0  0  0  0 
 13 14  1  0  0  0  0 
M  END
> <Name>
Phenol, 2-(4,5-dihydro-4,4-dimethyl-2-oxazolyl)-

> <Source>
Chemidplus3DMolFile

> <Tox>
1.713

> <CAS>
163165-91-1

$$$$

  CDK

 29 33  0  0  0  0  0  0  0  0999 V2000
   -4.3166    5.1916   11.2401 I   0  0  0  0  0  0  0  0  0  0  0  0
   -3.8387    3.6264    9.9602 C   0  0  0  0  0  0  0  0  0  0  0  0
   -4.2687    2.3317   10.2509 C   0  0  0  0  0  0  0  0  0  0  0  0
   -3.0876    3.8701    8.8104 C   0  0  0  0  0  0  0  0  0  0  0  0
   -3.9476    1.2806    9.3918 C   0  0  0  0  0  0  0  0  0  0  0  0
   -2.7666    2.8191    7.9513 C   0  0  0  0  0  0  0  0  0  0  0  0
   -3.1988    1.5318    8.2481 C   0  0  0  0  0  0  0  0  0  0  0  0
   -2.8724    0.4620    7.3732 N   0  0  0  0  0  0  0  0  0  0  0  0
   -1.8574    0.3427    6.4791 C   0  0  0  0  0  0  0  0  0  0  0  0
   -1.8013   -1.0003    5.4134 S   0  0  0  0  0  0  0  0  0  0  0  0
   -0.8658    1.1970    6.3425 N   0  0  0  0  0  0  0  0  0  0  0  0
   -0.3723   -0.3080    4.8067 C   0  0  0  0  0  0  0  0  0  0  0  0
    0.0139    0.8069    5.3479 N   0  0  0  0  0  0  0  0  0  0  0  0
    0.3648   -1.0077    3.6926 C   0  0  0  0  0  0  0  0  0  0  0  0
    1.3969   -1.9960    4.2367 C   0  0  0  0  0  0  0  0  0  0  0  0
    2.1226   -2.6543    3.1426 N   0  0  0  0  0  0  0  0  0  0  0  0
    1.5679   -3.8486    2.6169 C   0  0  0  0  0  0  0  0  0  0  0  0
    3.2864   -2.0106    2.6510 C   0  0  0  0  0  0  0  0  0  0  0  0
    2.3482   -4.7345    1.8478 C   0  0  0  0  0  0  0  0  0  0  0  0
    0.2104   -4.1889    2.8053 C   0  0  0  0  0  0  0  0  0  0  0  0
    4.2371   -2.7146    1.8856 C   0  0  0  0  0  0  0  0  0  0  0  0
    3.5308   -0.6373    2.8708 C   0  0  0  0  0  0  0  0  0  0  0  0
    4.0784   -4.4530    1.5290 S   0  0  0  0  0  0  0  0  0  0  0  0
    1.7911   -5.9139    1.3222 C   0  0  0  0  0  0  0  0  0  0  0  0
   -0.3395   -5.3600    2.2766 C   0  0  0  0  0  0  0  0  0  0  0  0
    5.3860   -2.0696    1.3942 C   0  0  0  0  0  0  0  0  0  0  0  0
    4.6718    0.0000    2.3758 C   0  0  0  0  0  0  0  0  0  0  0  0
    0.4525   -6.2250    1.5369 C   0  0  0  0  0  0  0  0  0  0  0  0
    5.6021   -0.7177    1.6395 C   0  0  0  0  0  0  0  0  0  0  0  0
  1  2  1  0  0  0  0 
  3  2  2  0  0  0  0 
  4  2  1  0  0  0  0 
  5  3  1  0  0  0  0 
  6  4  2  0  0  0  0 
  7  5  2  0  0  0  0 
  7  6  1  0  0  0  0 
  8  7  1  0  0  0  0 
  8  9  1  0  0  0  0 
 10  9  1  0  0  0  0 
 11  9  2  0  0  0  0 
 10 12  1  0  0  0  0 
 13 11  1  0  0  0  0 
 13 12  2  0  0  0  0 
 14 12  1  0  0  0  0 
 15 14  1  0  0  0  0 
 16 15  1  0  0  0  0 
 16 17  1  0  0  0  0 
 16 18  1  0  0  0  0 
 17 19  1  0  0  0  0 
 17 20  2  0  0  0  0 
 18 21  1  0  0  0  0 
 18 22  2  0  0  0  0 
 23 19  1  0  0  0  0 
 19 24  2  0  0  0  0 
 20 25  1  0  0  0  0 
 23 21  1  0  0  0  0 
 21 26  2  0  0  0  0 
 22 27  1  0  0  0  0 
 24 28  1  0  0  0  0 
 25 28  2  0  0  0  0 
 26 29  1  0  0  0  0 
 27 29  2  0  0  0  0 
M  END
> <Name>
1,3,4-Thiadiazol-2-amine, N-(4-iodophenyl)-5-(2-(10H-phenothiazin-10-yl)ethyl)-

> <Source>
Chemidplus3DMolFile

> <Tox>
2.232

> <CAS>
180793-94-6

$$$$

  CDK

 16 18  0  0  0  0  0  0  0  0999 V2000
   -4.2582   -1.0440    0.8091 N   0  0  0  0  0  0  0  0  0  0  0  0
   -4.3871   -2.4771    0.7021 C   0  0  0  0  0  0  0  0  0  0  0  0
   -3.1203   -0.3086    0.6361 C   0  0  0  0  0  0  0  0  0  0  0  0
   -5.2653   -0.1641    1.1051 C   0  0  0  0  0  0  0  0  0  0  0  0
   -4.7234   -2.9103   -0.6878 C   0  0  0  0  0  0  0  0  0  0  0  0
   -1.8935   -0.7584    0.3326 N   0  0  0  0  0  0  0  0  0  0  0  0
   -3.5039    1.0070    0.8417 C   0  0  0  0  0  0  0  0  0  0  0  0
   -4.8428    1.0827    1.1329 N   0  0  0  0  0  0  0  0  0  0  0  0
   -3.6939   -3.6470   -1.4838 C   0  0  0  0  0  0  0  0  0  0  0  0
   -4.9037   -4.3684   -0.9661 C   0  0  0  0  0  0  0  0  0  0  0  0
   -1.0220    0.2700    0.2439 C   0  0  0  0  0  0  0  0  0  0  0  0
   -2.5136    1.9769    0.7225 C   0  0  0  0  0  0  0  0  0  0  0  0
   -1.2502    1.5943    0.4173 N   0  0  0  0  0  0  0  0  0  0  0  0
   -2.8133    3.3365    0.9159 N   0  0  0  0  0  0  0  0  0  0  0  0
   -1.8118    4.2460    1.4429 C   0  0  0  0  0  0  0  0  0  0  0  0
   -4.1340    3.8532    0.6054 C   0  0  0  0  0  0  0  0  0  0  0  0
  1  2  1  0  0  0  0 
  1  3  1  0  0  0  0 
  1  4  1  0  0  0  0 
  5  2  1  0  0  0  0 
  6  3  1  0  0  0  0 
  3  7  2  0  0  0  0 
  8  4  2  0  0  0  0 
  5  9  1  0  0  0  0 
  5 10  1  0  0  0  0 
  6 11  2  0  0  0  0 
  8  7  1  0  0  0  0 
  7 12  1  0  0  0  0 
  9 10  1  0  0  0  0 
 13 11  1  0  0  0  0 
 14 12  1  0  0  0  0 
 13 12  2  0  0  0  0 
 14 15  1  0  0  0  0 
 14 16  1  0  0  0  0 
M  END
> <Name>
9H-Purin-6-amine, 9-(cyclopropylmethyl)-N,N-dimethyl-

> <Source>
Chemidplus3DMolFile

> <Tox>
2.581

> <CAS>
195252-02-9

$$$$

  CDK

 17 20  0  0  0  0  0  0  0  0999 V2000
   -4.2582   -1.0440    0.8091 N   0  0  0  0  0  0  0  0  0  0  0  0
   -4.3871   -2.4771    0.7021 C   0  0  0  0  0  0  0  0  0  0  0  0
   -3.1203   -0.3086    0.6361 C   0  0  0  0  0  0  0  0  0  0  0  0
   -5.2653   -0.1641    1.1051 C   0  0  0  0  0  0  0  0  0  0  0  0
   -4.7234   -2.9103   -0.6878 C   0  0  0  0  0  0  0  0  0  0  0  0
   -1.8935   -0.7584    0.3326 N   0  0  0  0  0  0  0  0  0  0  0  0
   -3.5039    1.0070    0.8417 C   0  0  0  0  0  0  0  0  0  0  0  0
   -4.8428    1.0827    1.1329 N   0  0  0  0  0  0  0  0  0  0  0  0
   -4.9037   -4.3684   -0.9661 C   0  0  0  0  0  0  0  0  0  0  0  0
   -3.6939   -3.6470   -1.4838 C   0  0  0  0  0  0  0  0  0  0  0  0
   -1.0220    0.2700    0.2439 C   0  0  0  0  0  0  0  0  0  0  0  0
   -2.5136    1.9769    0.7225 C   0  0  0  0  0  0  0  0  0  0  0  0
   -1.2502    1.5943    0.4173 N   0  0  0  0  0  0  0  0  0  0  0  0
   -2.8133    3.3365    0.9159 N   0  0  0  0  0  0  0  0  0  0  0  0
   -1.8322    4.4154    0.8091 C   0  0  0  0  0  0  0  0  0  0  0  0
   -2.2496    5.8223    0.4921 C   0  0  0  0  0  0  0  0  0  0  0  0
   -1.4794    5.0231   -0.5178 C   0  0  0  0  0  0  0  0  0  0  0  0
  1  2  1  0  0  0  0 
  1  3  1  0  0  0  0 
  1  4  1  0  0  0  0 
  5  2  1  0  0  0  0 
  6  3  2  0  0  0  0 
  3  7  1  0  0  0  0 
  8  4  2  0  0  0  0 
  5  9  1  0  0  0  0 
  5 10  1  0  0  0  0 
  6 11  1  0  0  0  0 
  8  7  1  0  0  0  0 
 12  7  2  0  0  0  0 
  9 10  1  0  0  0  0 
 13 11  2  0  0  0  0 
 14 12  1  0  0  0  0 
 13 12  1  0  0  0  0 
 14 15  1  0  0  0  0 
 15 16  1  0  0  0  0 
 15 17  1  0  0  0  0 
 16 17  1  0  0  0  0 
M  END
> <Name>
9H-Purin-6-amine, N-cyclopropyl-9-(cyclopropylmethyl)-

> <Source>
Chemidplus3DMolFile

> <Tox>
3.156

> <CAS>
195252-21-2

$$$$
